@<TRIPOS>MOLECULE
*****
 28 32 0 0 0
SMALL
GASTEIGER

@<TRIPOS>ATOM
      1 CL          7.2669    1.3463    0.0000 Cl      1  UNL1       -0.0822
      2 C           6.8034   -0.0803    0.0000 C.ar    1  UNL1        0.0576
      3 C           7.8071   -1.1950    0.0000 C.ar    1  UNL1        0.0114
      4 C           7.3435   -2.6216    0.0000 C.ar    1  UNL1        0.0009
      5 C           5.8763   -2.9335    0.0000 C.ar    1  UNL1        0.0001
      6 C           4.8726   -1.8188    0.0000 C.ar    1  UNL1        0.0008
      7 C           5.3361   -0.3922    0.0000 C.ar    1  UNL1        0.0106
      8 C           4.3324    0.7225    0.0000 C.ar    1  UNL1        0.0008
      9 C           2.8652    0.4107    0.0000 C.ar    1  UNL1        0.0010
     10 C           1.8615    1.5254    0.0000 C.ar    1  UNL1        0.0399
     11 C           2.3250    2.9520    0.0000 C.ar    1  UNL1        0.1434
     12 O           1.3213    4.0667    0.0000 O.3     1  UNL1       -0.4540
     13 C          -0.1459    3.7548    0.0000 C.ar    1  UNL1        0.1436
     14 C          -0.6094    2.3282    0.0000 C.ar    1  UNL1        0.0429
     15 C          -2.0766    2.0164    0.0000 C.ar    1  UNL1        0.0379
     16 C          -3.0803    3.1311    0.0000 C.ar    1  UNL1        0.1387
     17 O          -4.5475    2.8192    0.0000 O.3     1  UNL1       -0.4714
     18 C          -5.5512    3.9339    0.0000 C.3     1  UNL1        0.2525
     19 C          -2.6168    4.5577    0.0000 C.ar    1  UNL1        0.0400
     20 C          -1.1496    4.8695    0.0000 C.ar    1  UNL1        0.0403
     21 C           0.3943    1.2135    0.0000 C.3     1  UNL1        0.1722
     22 N           1.2760    0.0000    0.0000 N.2     1  UNL1       -0.2132
     23 C           0.3943   -1.2135    0.0000 C.2     1  UNL1        0.3207
     24 O          -1.0323   -0.7500    0.0000 O.2     1  UNL1       -0.4450
     25 C          -1.0323    0.7500    0.0000 C.3     1  UNL1        0.2393
     26 N           0.8578   -2.6401    0.0000 N.pl3   1  UNL1       -0.0691
     27 C           3.7923    3.2638    0.0000 C.ar    1  UNL1        0.0372
     28 C           4.7960    2.1491    0.0000 C.ar    1  UNL1        0.0031
@<TRIPOS>BOND
     1     1     2    1
     2     2     3   ar
     3     3     4   ar
     4     4     5   ar
     5     5     6   ar
     6     6     7   ar
     7     7     8    1
     8     8     9   ar
     9     9    10   ar
    10    10    11   ar
    11    11    12    1
    12    12    13    1
    13    13    14   ar
    14    14    15   ar
    15    15    16   ar
    16    16    17    1
    17    17    18    1
    18    16    19   ar
    19    19    20   ar
    20    14    21    1
    21    21    22    1
    22    22    23    2
    23    23    24    1
    24    24    25    1
    25    23    26    1
    26    11    27   ar
    27    27    28   ar
    28     7     2   ar
    29    28     8   ar
    30    21    10    1
    31    20    13   ar
    32    25    21    1
