@<TRIPOS>MOLECULE
*****
 35 38 0 0 0
SMALL
GASTEIGER

@<TRIPOS>ATOM
      1 C          22.4594   17.1451   -1.0010 C.ar    1  UNL1        0.0095
      2 C          22.1138   18.4830   -0.4174 C.ar    1  UNL1       -0.0000
      3 C          20.7753   19.0999   -0.6965 C.ar    1  UNL1        0.0175
      4 C          20.4297   20.4378   -0.1129 C.ar    1  UNL1        0.0015
      5 C          19.0913   21.0546   -0.3921 C.ar    1  UNL1       -0.0002
      6 C          18.0984   20.3337   -1.2550 C.ar    1  UNL1        0.0015
      7 C          18.4440   18.9958   -1.8386 C.ar    1  UNL1        0.0191
      8 C          19.7825   18.3789   -1.5594 C.ar    1  UNL1        0.0826
      9 N          20.1281   17.0410   -2.1430 N.ar    1  UNL1       -0.2315
     10 C          21.4666   16.4241   -1.8638 C.ar    1  UNL1        0.1213
     11 N          21.8122   15.0862   -2.4474 N.pl3   1  UNL1       -0.3429
     12 H          21.1606   14.6130   -3.0138 H       1  UNL1        0.1437
     13 H          22.6907   14.6813   -2.2642 H       1  UNL1        0.1437
     14 C          18.7456   22.3926    0.1915 C.ar    1  UNL1       -0.0040
     15 C          19.0452   23.6458   -0.5764 C.ar    1  UNL1       -0.0003
     16 C          18.6995   24.9837    0.0072 C.ar    1  UNL1       -0.0000
     17 C          18.0543   25.0684    1.3587 C.ar    1  UNL1       -0.0003
     18 C          17.7548   23.8151    2.1266 C.ar    1  UNL1       -0.0043
     19 C          18.1004   22.4772    1.5430 C.ar    1  UNL1       -0.0218
     20 C          17.8009   21.2240    2.3109 C.3     1  UNL1        0.0310
     21 C          23.7979   16.5282   -0.7218 C.3     1  UNL1        0.0382
     22 C          24.1031   15.9840    0.6423 C.3     1  UNL1        0.0809
     23 C          24.8253   16.8346    1.6447 C.3     1  UNL1        0.0099
     24 N          23.5019   14.2111    2.4438 N.am    1  UNL1       -0.3058
     25 C          23.6859   14.5893    1.0040 C.2     1  UNL1        0.2223
     26 O          23.4527   13.5728   -0.0741 O.2     1  UNL1       -0.2751
     27 H          23.6550   14.8783    3.1515 H       1  UNL1        0.1494
     28 O          22.2505   10.0270    3.5290 O.3     1  UNL1       -0.3584
     29 C          23.6912   10.4306    3.6364 C.3     1  UNL1        0.1436
     30 C          24.1084   11.8253    3.2746 C.3     1  UNL1        0.0517
     31 C          23.0848   12.8164    2.8056 C.3     1  UNL1        0.0764
     32 C          21.6441   12.4129    2.6982 C.3     1  UNL1        0.0468
     33 C          21.2270   11.0181    3.0600 C.3     1  UNL1        0.0945
     34 C          19.8983   11.5943    2.6694 C.3     1  UNL1        0.0297
     35 C          20.3484    9.8236    3.2860 C.3     1  UNL1        0.0297
@<TRIPOS>BOND
     1    28    29    1
     2    29    30    1
     3    30    31    1
     4    31    24    1
     5    24    25   am
     6    25    26    2
     7    25    22    1
     8    22    21    1
     9    21     1    1
    10     1     2   ar
    11     2     3   ar
    12     3     4   ar
    13     4     5   ar
    14     5     6   ar
    15     6     7   ar
    16     7     8   ar
    17     8     9   ar
    18     9    10   ar
    19    10    11    1
    20     5    14    1
    21    14    15   ar
    22    15    16   ar
    23    16    17   ar
    24    17    18   ar
    25    18    19   ar
    26    19    20    1
    27    22    23    1
    28    31    32    1
    29    32    33    1
    30    33    34    1
    31    33    35    1
    32    33    28    1
    33    10     1   ar
    34    19    14   ar
    35     8     3   ar
    36    24    27    1
    37    11    12    1
    38    11    13    1
@<TRIPOS>MOLECULE
*****
 35 38 0 0 0
SMALL
GASTEIGER

@<TRIPOS>ATOM
      1 C          24.8980   26.3419    2.0030 C.ar    1  UNL1        0.0095
      2 C          23.9281   25.2333    1.7200 C.ar    1  UNL1       -0.0000
      3 C          22.4524   25.4854    1.8145 C.ar    1  UNL1        0.0175
      4 C          21.4825   24.3768    1.5315 C.ar    1  UNL1        0.0015
      5 C          20.0069   24.6289    1.6260 C.ar    1  UNL1       -0.0002
      6 C          19.5012   25.9897    2.0035 C.ar    1  UNL1        0.0015
      7 C          20.4712   27.0984    2.2865 C.ar    1  UNL1        0.0191
      8 C          21.9467   26.8462    2.1920 C.ar    1  UNL1        0.0826
      9 N          22.9168   27.9549    2.4750 N.ar    1  UNL1       -0.2315
     10 C          24.3924   27.7027    2.3805 C.ar    1  UNL1        0.1213
     11 N          25.3624   28.8114    2.6635 N.pl3   1  UNL1       -0.3429
     12 H          25.0305   29.7045    2.9113 H       1  UNL1        0.1437
     13 H          26.3309   28.6459    2.6015 H       1  UNL1        0.1437
     14 C          19.0369   23.5203    1.3430 C.ar    1  UNL1       -0.0040
     15 C          18.6302   22.5814    2.4398 C.ar    1  UNL1       -0.0003
     16 C          17.6603   21.4728    2.1569 C.ar    1  UNL1       -0.0000
     17 C          17.0969   21.3030    0.7770 C.ar    1  UNL1       -0.0003
     18 C          17.5036   22.2419   -0.3198 C.ar    1  UNL1       -0.0043
     19 C          18.4736   23.3506   -0.0368 C.ar    1  UNL1       -0.0218
     20 C          18.8803   24.2895   -1.1337 C.3     1  UNL1        0.0310
     21 C          26.3737   26.0898    1.9084 C.3     1  UNL1        0.0382
     22 C          27.0610   26.1496    0.5765 C.3     1  UNL1        0.0809
     23 C          28.2636   25.2925    0.3139 C.3     1  UNL1        0.0099
     24 N          26.9302   28.5163   -0.4872 N.am    1  UNL1       -0.3058
     25 C          26.5455   27.0665   -0.4929 C.2     1  UNL1        0.2223
     26 O          25.6455   26.5336   -1.5680 O.2     1  UNL1       -0.2751
     27 H          27.5209   28.8661    0.2184 H       1  UNL1        0.1494
     28 O          25.3840   31.2672   -3.6953 O.3     1  UNL1       -0.3584
     29 C          26.6027   30.4300   -3.9485 C.3     1  UNL1        0.1436
     30 C          27.1181   29.5131   -2.8791 C.3     1  UNL1        0.0517
     31 C          26.4148   29.4333   -1.5566 C.3     1  UNL1        0.0764
     32 C          25.1961   30.2704   -1.3034 C.3     1  UNL1        0.0468
     33 C          24.6807   31.1873   -2.3729 C.3     1  UNL1        0.0945
     34 C          23.6774   31.4587   -1.2913 C.3     1  UNL1        0.0297
     35 C          23.8169   32.1985   -3.0666 C.3     1  UNL1        0.0297
@<TRIPOS>BOND
     1    28    29    1
     2    29    30    1
     3    30    31    1
     4    31    24    1
     5    24    25   am
     6    25    26    2
     7    25    22    1
     8    22    21    1
     9    21     1    1
    10     1     2   ar
    11     2     3   ar
    12     3     4   ar
    13     4     5   ar
    14     5     6   ar
    15     6     7   ar
    16     7     8   ar
    17     8     9   ar
    18     9    10   ar
    19    10    11    1
    20     5    14    1
    21    14    15   ar
    22    15    16   ar
    23    16    17   ar
    24    17    18   ar
    25    18    19   ar
    26    19    20    1
    27    22    23    1
    28    31    32    1
    29    32    33    1
    30    33    34    1
    31    33    35    1
    32    33    28    1
    33    10     1   ar
    34    19    14   ar
    35     8     3   ar
    36    24    27    1
    37    11    12    1
    38    11    13    1
@<TRIPOS>MOLECULE
*****
 35 38 0 0 0
SMALL
GASTEIGER

@<TRIPOS>ATOM
      1 C          24.2219   27.2091    1.0533 C.ar    1  UNL1        0.0095
      2 C          24.5388   26.3148   -0.1085 C.ar    1  UNL1       -0.0000
      3 C          25.9211   25.7547   -0.2687 C.ar    1  UNL1        0.0175
      4 C          26.2380   24.8604   -1.4304 C.ar    1  UNL1        0.0015
      5 C          27.6202   24.3003   -1.5906 C.ar    1  UNL1       -0.0002
      6 C          28.6856   24.6346   -0.5890 C.ar    1  UNL1        0.0015
      7 C          28.3687   25.5290    0.5728 C.ar    1  UNL1        0.0191
      8 C          26.9865   26.0890    0.7329 C.ar    1  UNL1        0.0826
      9 N          26.6695   26.9834    1.8947 N.ar    1  UNL1       -0.2315
     10 C          25.2873   27.5434    2.0549 C.ar    1  UNL1        0.1213
     11 N          24.9703   28.4378    3.2167 N.pl3   1  UNL1       -0.3429
     12 H          25.6696   28.6573    3.8741 H       1  UNL1        0.1437
     13 H          24.0631   28.8054    3.3218 H       1  UNL1        0.1437
     14 C          27.9371   23.4060   -2.7524 C.ar    1  UNL1       -0.0040
     15 C          29.1025   23.7186   -3.6435 C.ar    1  UNL1       -0.0003
     16 C          29.4195   22.8243   -4.8052 C.ar    1  UNL1       -0.0000
     17 C          28.5710   21.6173   -5.0759 C.ar    1  UNL1       -0.0003
     18 C          27.4056   21.3046   -4.1848 C.ar    1  UNL1       -0.0043
     19 C          27.0887   22.1990   -3.0230 C.ar    1  UNL1       -0.0218
     20 C          25.9233   21.8863   -2.1319 C.3     1  UNL1        0.0310
     21 C          22.8396   27.7692    1.2135 C.3     1  UNL1        0.0382
     22 C          21.8519   27.0838    2.1105 C.3     1  UNL1        0.0809
     23 C          21.5222   27.6714    3.4506 C.3     1  UNL1        0.0099
     24 N          19.7192   25.7837    1.3954 N.am    1  UNL1       -0.3058
     25 C          21.1941   25.8106    1.6674 C.2     1  UNL1        0.2223
     26 O          22.0111   24.5643    1.4964 O.2     1  UNL1       -0.2751
     27 H          19.1830   26.6017    1.5076 H       1  UNL1        0.1494
     28 O          17.7455   21.9643    0.0661 O.3     1  UNL1       -0.3584
     29 C          17.8950   22.2617    1.5287 C.3     1  UNL1        0.1436
     30 C          18.5529   23.5348    1.9718 C.3     1  UNL1        0.0517
     31 C          19.0613   24.5106    0.9523 C.3     1  UNL1        0.0764
     32 C          18.9118   24.2132   -0.5103 C.3     1  UNL1        0.0468
     33 C          18.2539   22.9400   -0.9534 C.3     1  UNL1        0.0945
     34 C          18.5722   23.5468   -2.2878 C.3     1  UNL1        0.0297
     35 C          17.7066   21.8777   -1.8599 C.3     1  UNL1        0.0297
@<TRIPOS>BOND
     1    28    29    1
     2    29    30    1
     3    30    31    1
     4    31    24    1
     5    24    25   am
     6    25    26    2
     7    25    22    1
     8    22    21    1
     9    21     1    1
    10     1     2   ar
    11     2     3   ar
    12     3     4   ar
    13     4     5   ar
    14     5     6   ar
    15     6     7   ar
    16     7     8   ar
    17     8     9   ar
    18     9    10   ar
    19    10    11    1
    20     5    14    1
    21    14    15   ar
    22    15    16   ar
    23    16    17   ar
    24    17    18   ar
    25    18    19   ar
    26    19    20    1
    27    22    23    1
    28    31    32    1
    29    32    33    1
    30    33    34    1
    31    33    35    1
    32    33    28    1
    33    10     1   ar
    34    19    14   ar
    35     8     3   ar
    36    24    27    1
    37    11    12    1
    38    11    13    1
@<TRIPOS>MOLECULE
*****
 35 38 0 0 0
SMALL
GASTEIGER

@<TRIPOS>ATOM
      1 C          16.8287   16.9270   -3.9561 C.ar    1  UNL1        0.0095
      2 C          16.6895   18.2786   -3.3207 C.ar    1  UNL1       -0.0000
      3 C          17.7755   18.8035   -2.4290 C.ar    1  UNL1        0.0175
      4 C          17.6363   20.1551   -1.7936 C.ar    1  UNL1        0.0015
      5 C          18.7223   20.6800   -0.9019 C.ar    1  UNL1       -0.0002
      6 C          19.9474   19.8533   -0.6457 C.ar    1  UNL1        0.0015
      7 C          20.0866   18.5018   -1.2811 C.ar    1  UNL1        0.0191
      8 C          19.0006   17.9768   -2.1727 C.ar    1  UNL1        0.0826
      9 N          19.1398   16.6252   -2.8082 N.ar    1  UNL1       -0.2315
     10 C          18.0538   16.1003   -3.6999 C.ar    1  UNL1        0.1213
     11 N          18.1929   14.7486   -4.3353 N.pl3   1  UNL1       -0.3429
     12 H          18.9970   14.2060   -4.1671 H       1  UNL1        0.1437
     13 H          17.4802   14.4041   -4.9206 H       1  UNL1        0.1437
     14 C          18.5832   22.0317   -0.2665 C.ar    1  UNL1       -0.0040
     15 C          18.9081   23.2671   -1.0528 C.ar    1  UNL1       -0.0003
     16 C          18.7690   24.6187   -0.4174 C.ar    1  UNL1       -0.0000
     17 C          18.3049   24.7350    1.0044 C.ar    1  UNL1       -0.0003
     18 C          17.9801   23.4996    1.7906 C.ar    1  UNL1       -0.0043
     19 C          18.1192   22.1479    1.1552 C.ar    1  UNL1       -0.0218
     20 C          17.7943   20.9125    1.9415 C.3     1  UNL1        0.0310
     21 C          15.7427   16.4020   -4.8479 C.3     1  UNL1        0.0382
     22 C          15.7497   16.7305   -6.3114 C.3     1  UNL1        0.0809
     23 C          16.9332   16.3638   -7.1568 C.3     1  UNL1        0.0099
     24 N          14.2911   17.2648   -8.3941 N.am    1  UNL1       -0.3058
     25 C          14.5731   17.4259   -6.9296 C.2     1  UNL1        0.2223
     26 O          13.6784   18.2823   -6.0834 O.2     1  UNL1       -0.2751
     27 H          14.8784   16.7027   -8.9495 H       1  UNL1        0.1494
     28 O          10.7614   19.3507  -10.2487 O.3     1  UNL1       -0.3584
     29 C          12.1424   19.9073  -10.4312 C.3     1  UNL1        0.1436
     30 C          13.3189   19.2120   -9.8129 C.3     1  UNL1        0.0517
     31 C          13.1146   17.9601   -9.0123 C.3     1  UNL1        0.0764
     32 C          11.7337   17.4035   -8.8298 C.3     1  UNL1        0.0468
     33 C          10.5571   18.0989   -9.4481 C.3     1  UNL1        0.0945
     34 C           9.8600   16.9499   -8.7818 C.3     1  UNL1        0.0297
     35 C           9.1384   18.3951   -9.8349 C.3     1  UNL1        0.0297
@<TRIPOS>BOND
     1    28    29    1
     2    29    30    1
     3    30    31    1
     4    31    24    1
     5    24    25   am
     6    25    26    2
     7    25    22    1
     8    22    21    1
     9    21     1    1
    10     1     2   ar
    11     2     3   ar
    12     3     4   ar
    13     4     5   ar
    14     5     6   ar
    15     6     7   ar
    16     7     8   ar
    17     8     9   ar
    18     9    10   ar
    19    10    11    1
    20     5    14    1
    21    14    15   ar
    22    15    16   ar
    23    16    17   ar
    24    17    18   ar
    25    18    19   ar
    26    19    20    1
    27    22    23    1
    28    31    32    1
    29    32    33    1
    30    33    34    1
    31    33    35    1
    32    33    28    1
    33    10     1   ar
    34    19    14   ar
    35     8     3   ar
    36    24    27    1
    37    11    12    1
    38    11    13    1
@<TRIPOS>MOLECULE
*****
 35 38 0 0 0
SMALL
GASTEIGER

@<TRIPOS>ATOM
      1 C          25.0933   20.1404   -1.6966 C.ar    1  UNL1        0.0095
      2 C          24.8689   21.3304   -0.8114 C.ar    1  UNL1       -0.0000
      3 C          25.6993   22.5665   -0.9916 C.ar    1  UNL1        0.0175
      4 C          25.4749   23.7565   -0.1064 C.ar    1  UNL1        0.0015
      5 C          26.3053   24.9925   -0.2867 C.ar    1  UNL1       -0.0002
      6 C          27.3602   25.0386   -1.3521 C.ar    1  UNL1        0.0015
      7 C          27.5846   23.8487   -2.2372 C.ar    1  UNL1        0.0191
      8 C          26.7542   22.6126   -2.0570 C.ar    1  UNL1        0.0826
      9 N          26.9786   21.4226   -2.9422 N.ar    1  UNL1       -0.2315
     10 C          26.1482   20.1865   -2.7620 C.ar    1  UNL1        0.1213
     11 N          26.3726   18.9965   -3.6472 N.pl3   1  UNL1       -0.3429
     12 H          27.0650   19.0267   -4.3465 H       1  UNL1        0.1437
     13 H          25.8276   18.1852   -3.5289 H       1  UNL1        0.1437
     14 C          26.0809   26.1826    0.5986 C.ar    1  UNL1       -0.0040
     15 C          26.9079   26.3628    1.8369 C.ar    1  UNL1       -0.0003
     16 C          26.6836   27.5527    2.7221 C.ar    1  UNL1       -0.0000
     17 C          25.6320   28.5626    2.3690 C.ar    1  UNL1       -0.0003
     18 C          24.8050   28.3824    1.1306 C.ar    1  UNL1       -0.0043
     19 C          25.0294   27.1923    0.2454 C.ar    1  UNL1       -0.0218
     20 C          24.2023   27.0121   -0.9929 C.3     1  UNL1        0.0310
     21 C          24.2629   18.9043   -1.5164 C.3     1  UNL1        0.0382
     22 C          22.9452   18.7767   -2.2216 C.3     1  UNL1        0.0809
     23 C          22.8952   18.2661   -3.6311 C.3     1  UNL1        0.0099
     24 N          21.7120   20.1642   -0.4039 N.am    1  UNL1       -0.3058
     25 C          21.6773   19.1596   -1.5172 C.2     1  UNL1        0.2223
     26 O          20.3750   18.5380   -1.9263 O.2     1  UNL1       -0.2751
     27 H          22.5668   20.5722   -0.1354 H       1  UNL1        0.1494
     28 O          17.9088   21.3130    1.7093 O.3     1  UNL1       -0.3584
     29 C          18.8348   20.3068    2.3258 C.3     1  UNL1        0.1436
     30 C          20.1025   19.9239    1.6214 C.3     1  UNL1        0.0517
     31 C          20.4443   20.5471    0.3005 C.3     1  UNL1        0.0764
     32 C          19.5183   21.5534   -0.3160 C.3     1  UNL1        0.0468
     33 C          18.2505   21.9363    0.3885 C.3     1  UNL1        0.0945
     34 C          18.1384   22.7963   -0.8354 C.3     1  UNL1        0.0297
     35 C          16.9439   22.6179    0.6677 C.3     1  UNL1        0.0297
@<TRIPOS>BOND
     1    28    29    1
     2    29    30    1
     3    30    31    1
     4    31    24    1
     5    24    25   am
     6    25    26    2
     7    25    22    1
     8    22    21    1
     9    21     1    1
    10     1     2   ar
    11     2     3   ar
    12     3     4   ar
    13     4     5   ar
    14     5     6   ar
    15     6     7   ar
    16     7     8   ar
    17     8     9   ar
    18     9    10   ar
    19    10    11    1
    20     5    14    1
    21    14    15   ar
    22    15    16   ar
    23    16    17   ar
    24    17    18   ar
    25    18    19   ar
    26    19    20    1
    27    22    23    1
    28    31    32    1
    29    32    33    1
    30    33    34    1
    31    33    35    1
    32    33    28    1
    33    10     1   ar
    34    19    14   ar
    35     8     3   ar
    36    24    27    1
    37    11    12    1
    38    11    13    1
@<TRIPOS>MOLECULE
*****
 35 38 0 0 0
SMALL
GASTEIGER

@<TRIPOS>ATOM
      1 C          16.8895   16.8976   -4.5371 C.ar    1  UNL1        0.0095
      2 C          15.7280   17.5528   -5.2239 C.ar    1  UNL1       -0.0000
      3 C          15.1634   16.9542   -6.4781 C.ar    1  UNL1        0.0175
      4 C          14.0020   17.6094   -7.1650 C.ar    1  UNL1        0.0015
      5 C          13.4374   17.0108   -8.4191 C.ar    1  UNL1       -0.0002
      6 C          14.0342   15.7570   -8.9863 C.ar    1  UNL1        0.0015
      7 C          15.1956   15.1018   -8.2995 C.ar    1  UNL1        0.0191
      8 C          15.7602   15.7004   -7.0454 C.ar    1  UNL1        0.0826
      9 N          16.9217   15.0452   -6.3585 N.ar    1  UNL1       -0.2315
     10 C          17.4863   15.6438   -5.1043 C.ar    1  UNL1        0.1213
     11 N          18.6478   14.9887   -4.4174 N.pl3   1  UNL1       -0.3429
     12 H          19.0395   14.1657   -4.7897 H       1  UNL1        0.1437
     13 H          19.0183   15.3816   -3.5943 H       1  UNL1        0.1437
     14 C          12.2759   17.6659   -9.1060 C.ar    1  UNL1       -0.0040
     15 C          10.8732   17.3143   -8.7074 C.ar    1  UNL1       -0.0003
     16 C           9.7118   17.9694   -9.3943 C.ar    1  UNL1       -0.0000
     17 C           9.9530   18.9762  -10.4798 C.ar    1  UNL1       -0.0003
     18 C          11.3557   19.3279  -10.8784 C.ar    1  UNL1       -0.0043
     19 C          12.5171   18.6727  -10.1914 C.ar    1  UNL1       -0.0218
     20 C          13.9198   19.0243  -10.5900 C.3     1  UNL1        0.0310
     21 C          17.4541   17.4962   -3.2829 C.3     1  UNL1        0.0382
     22 C          18.4510   18.6138   -3.3681 C.3     1  UNL1        0.0809
     23 C          19.2427   18.8183   -4.6256 C.3     1  UNL1        0.0099
     24 N          17.5612   20.4604   -1.7717 N.am    1  UNL1       -0.3058
     25 C          18.6561   19.5269   -2.1958 C.2     1  UNL1        0.2223
     26 O          19.9560   19.5066   -1.4477 O.2     1  UNL1       -0.2751
     27 H          16.7080   20.4737   -2.2627 H       1  UNL1        0.1494
     28 O          18.1762   23.1996    1.7452 O.3     1  UNL1       -0.3584
     29 C          17.6942   21.7960    1.9631 C.3     1  UNL1        0.1436
     30 C          17.4891   20.8829    0.7908 C.3     1  UNL1        0.0517
     31 C          17.7662   21.3735   -0.5994 C.3     1  UNL1        0.0764
     32 C          18.2482   22.7771   -0.8173 C.3     1  UNL1        0.0468
     33 C          18.4533   23.6902    0.3550 C.3     1  UNL1        0.0945
     34 C          18.8493   24.6086   -0.7629 C.3     1  UNL1        0.0297
     35 C          18.7958   24.9222    1.1390 C.3     1  UNL1        0.0297
@<TRIPOS>BOND
     1    28    29    1
     2    29    30    1
     3    30    31    1
     4    31    24    1
     5    24    25   am
     6    25    26    2
     7    25    22    1
     8    22    21    1
     9    21     1    1
    10     1     2   ar
    11     2     3   ar
    12     3     4   ar
    13     4     5   ar
    14     5     6   ar
    15     6     7   ar
    16     7     8   ar
    17     8     9   ar
    18     9    10   ar
    19    10    11    1
    20     5    14    1
    21    14    15   ar
    22    15    16   ar
    23    16    17   ar
    24    17    18   ar
    25    18    19   ar
    26    19    20    1
    27    22    23    1
    28    31    32    1
    29    32    33    1
    30    33    34    1
    31    33    35    1
    32    33    28    1
    33    10     1   ar
    34    19    14   ar
    35     8     3   ar
    36    24    27    1
    37    11    12    1
    38    11    13    1
@<TRIPOS>MOLECULE
*****
 35 38 0 0 0
SMALL
GASTEIGER

@<TRIPOS>ATOM
      1 C          24.2331   28.9675    1.8837 C.ar    1  UNL1        0.0095
      2 C          24.5357   30.0583    0.8995 C.ar    1  UNL1       -0.0000
      3 C          23.4265   30.9151    0.3649 C.ar    1  UNL1        0.0175
      4 C          23.7291   32.0058   -0.6193 C.ar    1  UNL1        0.0015
      5 C          22.6199   32.8625   -1.1538 C.ar    1  UNL1       -0.0002
      6 C          21.2082   32.6285   -0.7041 C.ar    1  UNL1        0.0015
      7 C          20.9056   31.5377    0.2801 C.ar    1  UNL1        0.0191
      8 C          22.0148   30.6810    0.8146 C.ar    1  UNL1        0.0826
      9 N          21.7122   29.5902    1.7988 N.ar    1  UNL1       -0.2315
     10 C          22.8214   28.7335    2.3334 C.ar    1  UNL1        0.1213
     11 N          22.5188   27.6427    3.3176 N.pl3   1  UNL1       -0.3429
     12 H          21.5923   27.4891    3.6128 H       1  UNL1        0.1437
     13 H          23.2468   27.0804    3.6684 H       1  UNL1        0.1437
     14 C          22.9225   33.9533   -2.1381 C.ar    1  UNL1       -0.0040
     15 C          22.8040   33.6895   -3.6099 C.ar    1  UNL1       -0.0003
     16 C          23.1065   34.7802   -4.5941 C.ar    1  UNL1       -0.0000
     17 C          23.5276   36.1348   -4.1065 C.ar    1  UNL1       -0.0003
     18 C          23.6461   36.3987   -2.6347 C.ar    1  UNL1       -0.0043
     19 C          23.3436   35.3079   -1.6504 C.ar    1  UNL1       -0.0218
     20 C          23.4621   35.5717   -0.1786 C.3     1  UNL1        0.0310
     21 C          25.3423   28.1107    2.4182 C.3     1  UNL1        0.0382
     22 C          26.6141   27.9573    1.6379 C.3     1  UNL1        0.0809
     23 C          27.8172   28.7786    1.9955 C.3     1  UNL1        0.0099
     24 N          27.1019   25.5643    0.7515 N.am    1  UNL1       -0.3058
     25 C          26.6828   26.9824    0.4999 C.2     1  UNL1        0.2223
     26 O          26.3324   27.4256   -0.8896 O.2     1  UNL1       -0.2751
     27 H          27.3319   25.2734    1.6635 H       1  UNL1        0.1494
     28 O          27.3080   22.6396   -2.6623 O.3     1  UNL1       -0.3584
     29 C          28.2589   23.7984   -2.6090 C.3     1  UNL1        0.1436
     30 C          28.1902   24.7733   -1.4711 C.3     1  UNL1        0.0517
     31 C          27.1706   24.5894   -0.3864 C.3     1  UNL1        0.0764
     32 C          26.2197   23.4305   -0.4396 C.3     1  UNL1        0.0468
     33 C          26.2884   22.4556   -1.5776 C.3     1  UNL1        0.0945
     34 C          25.1560   21.8614   -0.7936 C.3     1  UNL1        0.0297
     35 C          25.9638   21.2744   -2.4432 C.3     1  UNL1        0.0297
@<TRIPOS>BOND
     1    28    29    1
     2    29    30    1
     3    30    31    1
     4    31    24    1
     5    24    25   am
     6    25    26    2
     7    25    22    1
     8    22    21    1
     9    21     1    1
    10     1     2   ar
    11     2     3   ar
    12     3     4   ar
    13     4     5   ar
    14     5     6   ar
    15     6     7   ar
    16     7     8   ar
    17     8     9   ar
    18     9    10   ar
    19    10    11    1
    20     5    14    1
    21    14    15   ar
    22    15    16   ar
    23    16    17   ar
    24    17    18   ar
    25    18    19   ar
    26    19    20    1
    27    22    23    1
    28    31    32    1
    29    32    33    1
    30    33    34    1
    31    33    35    1
    32    33    28    1
    33    10     1   ar
    34    19    14   ar
    35     8     3   ar
    36    24    27    1
    37    11    12    1
    38    11    13    1
@<TRIPOS>MOLECULE
*****
 35 38 0 0 0
SMALL
GASTEIGER

@<TRIPOS>ATOM
      1 C          24.6236   19.8122   -0.7419 C.ar    1  UNL1        0.0095
      2 C          24.5242   21.0915    0.0349 C.ar    1  UNL1       -0.0000
      3 C          25.3047   22.2961   -0.4009 C.ar    1  UNL1        0.0175
      4 C          25.2053   23.5755    0.3758 C.ar    1  UNL1        0.0015
      5 C          25.9857   24.7800   -0.0600 C.ar    1  UNL1       -0.0002
      6 C          26.8655   24.7052   -1.2727 C.ar    1  UNL1        0.0015
      7 C          26.9648   23.4259   -2.0494 C.ar    1  UNL1        0.0191
      8 C          26.1844   22.2213   -1.6136 C.ar    1  UNL1        0.0826
      9 N          26.2838   20.9419   -2.3903 N.ar    1  UNL1       -0.2315
     10 C          25.5033   19.7374   -1.9545 C.ar    1  UNL1        0.1213
     11 N          25.6027   18.4579   -2.7312 N.pl3   1  UNL1       -0.3429
     12 H          26.1801   18.4088   -3.5271 H       1  UNL1        0.1437
     13 H          25.0904   17.6674   -2.4452 H       1  UNL1        0.1437
     14 C          25.8864   26.0594    0.7167 C.ar    1  UNL1       -0.0040
     15 C          26.7836   26.2924    1.8960 C.ar    1  UNL1       -0.0003
     16 C          26.6843   27.5717    2.6728 C.ar    1  UNL1       -0.0000
     17 C          25.6878   28.6182    2.2702 C.ar    1  UNL1       -0.0003
     18 C          24.7906   28.3852    1.0910 C.ar    1  UNL1       -0.0043
     19 C          24.8899   27.1058    0.3142 C.ar    1  UNL1       -0.0218
     20 C          23.9927   26.8728   -0.8651 C.3     1  UNL1        0.0310
     21 C          23.8431   18.6075   -0.3060 C.3     1  UNL1        0.0382
     22 C          24.3164   17.7881    0.8578 C.3     1  UNL1        0.0809
     23 C          25.1894   18.4099    1.9072 C.3     1  UNL1        0.0099
     24 N          22.8031   15.9484    1.8950 N.am    1  UNL1       -0.3058
     25 C          23.9166   16.3469    0.9723 C.2     1  UNL1        0.2223
     26 O          24.6303   15.3041    0.1641 O.2     1  UNL1       -0.2751
     27 H          22.3347   16.6329    2.4254 H       1  UNL1        0.1494
     28 O          21.6037   11.6249    2.2384 O.3     1  UNL1       -0.3584
     29 C          20.9684   12.4991    1.1981 C.3     1  UNL1        0.1436
     30 C          21.3682   13.9402    1.0836 C.3     1  UNL1        0.0517
     31 C          22.4033   14.5073    2.0094 C.3     1  UNL1        0.0764
     32 C          23.0385   13.6331    3.0498 C.3     1  UNL1        0.0468
     33 C          22.6387   12.1918    3.1642 C.3     1  UNL1        0.0945
     34 C          23.6578   12.2674    4.2623 C.3     1  UNL1        0.0297
     35 C          22.5929   10.7769    3.6601 C.3     1  UNL1        0.0297
@<TRIPOS>BOND
     1    28    29    1
     2    29    30    1
     3    30    31    1
     4    31    24    1
     5    24    25   am
     6    25    26    2
     7    25    22    1
     8    22    21    1
     9    21     1    1
    10     1     2   ar
    11     2     3   ar
    12     3     4   ar
    13     4     5   ar
    14     5     6   ar
    15     6     7   ar
    16     7     8   ar
    17     8     9   ar
    18     9    10   ar
    19    10    11    1
    20     5    14    1
    21    14    15   ar
    22    15    16   ar
    23    16    17   ar
    24    17    18   ar
    25    18    19   ar
    26    19    20    1
    27    22    23    1
    28    31    32    1
    29    32    33    1
    30    33    34    1
    31    33    35    1
    32    33    28    1
    33    10     1   ar
    34    19    14   ar
    35     8     3   ar
    36    24    27    1
    37    11    12    1
    38    11    13    1
@<TRIPOS>MOLECULE
*****
 35 38 0 0 0
SMALL
GASTEIGER

@<TRIPOS>ATOM
      1 C          22.2187   17.5859   -1.6343 C.ar    1  UNL1        0.0095
      2 C          21.9242   16.2700   -0.9774 C.ar    1  UNL1       -0.0000
      3 C          22.8545   15.7283    0.0672 C.ar    1  UNL1        0.0175
      4 C          22.5601   14.4124    0.7241 C.ar    1  UNL1        0.0015
      5 C          23.4904   13.8708    1.7686 C.ar    1  UNL1       -0.0002
      6 C          24.7153   14.6451    2.1562 C.ar    1  UNL1        0.0015
      7 C          25.0098   15.9610    1.4993 C.ar    1  UNL1        0.0191
      8 C          24.0794   16.5026    0.4548 C.ar    1  UNL1        0.0826
      9 N          24.3739   17.8186   -0.2022 N.ar    1  UNL1       -0.2315
     10 C          23.4435   18.3602   -1.2467 C.ar    1  UNL1        0.1213
     11 N          23.7380   19.6761   -1.9037 N.pl3   1  UNL1       -0.3429
     12 H          24.5419   20.1844   -1.6494 H       1  UNL1        0.1437
     13 H          23.1273   20.0316   -2.5893 H       1  UNL1        0.1437
     14 C          23.1959   12.5548    2.4256 C.ar    1  UNL1       -0.0040
     15 C          22.9676   12.4904    3.9068 C.ar    1  UNL1       -0.0003
     16 C          22.6732   11.1746    4.5638 C.ar    1  UNL1       -0.0000
     17 C          22.6070    9.9229    3.7397 C.ar    1  UNL1       -0.0003
     18 C          22.8354    9.9873    2.2585 C.ar    1  UNL1       -0.0043
     19 C          23.1298   11.3032    1.6015 C.ar    1  UNL1       -0.0218
     20 C          23.3582   11.3676    0.1204 C.3     1  UNL1        0.0310
     21 C          21.2883   18.1276   -2.6789 C.3     1  UNL1        0.0382
     22 C          19.9235   18.6125   -2.2888 C.3     1  UNL1        0.0809
     23 C          18.7028   17.9778   -2.8863 C.3     1  UNL1        0.0099
     24 N          18.4145   20.1841   -0.8734 N.am    1  UNL1       -0.3058
     25 C          19.7794   19.7323   -1.3011 C.2     1  UNL1        0.2223
     26 O          21.0002   20.4003   -0.7412 O.2     1  UNL1       -0.2751
     27 H          17.6133   19.7457   -1.2409 H       1  UNL1        0.1494
     28 O          17.9821   23.5433    2.0895 O.3     1  UNL1       -0.3584
     29 C          17.7348   22.1277    2.5193 C.3     1  UNL1        0.1436
     30 C          17.8789   21.0079    1.5317 C.3     1  UNL1        0.0517
     31 C          18.2704   21.3038    0.1142 C.3     1  UNL1        0.0764
     32 C          18.5177   22.7195   -0.3156 C.3     1  UNL1        0.0468
     33 C          18.3735   23.8393    0.6720 C.3     1  UNL1        0.0945
     34 C          18.7617   24.6180   -0.5498 C.3     1  UNL1        0.0297
     35 C          18.3642   25.2294    1.2353 C.3     1  UNL1        0.0297
@<TRIPOS>BOND
     1    28    29    1
     2    29    30    1
     3    30    31    1
     4    31    24    1
     5    24    25   am
     6    25    26    2
     7    25    22    1
     8    22    21    1
     9    21     1    1
    10     1     2   ar
    11     2     3   ar
    12     3     4   ar
    13     4     5   ar
    14     5     6   ar
    15     6     7   ar
    16     7     8   ar
    17     8     9   ar
    18     9    10   ar
    19    10    11    1
    20     5    14    1
    21    14    15   ar
    22    15    16   ar
    23    16    17   ar
    24    17    18   ar
    25    18    19   ar
    26    19    20    1
    27    22    23    1
    28    31    32    1
    29    32    33    1
    30    33    34    1
    31    33    35    1
    32    33    28    1
    33    10     1   ar
    34    19    14   ar
    35     8     3   ar
    36    24    27    1
    37    11    12    1
    38    11    13    1
@<TRIPOS>MOLECULE
*****
 52 55 0 0 0
SMALL
GASTEIGER

@<TRIPOS>ATOM
      1 N          23.0830   19.8397   -0.6431 N.am    1  UNL1       -0.3017
      2 C          24.5005   20.1528   -0.2655 C.2     1  UNL1        0.2406
      3 O          25.0601   19.6483    1.0316 O.2     1  UNL1       -0.2733
      4 H          22.7157   20.1708   -1.4944 H       1  UNL1        0.1495
      5 C          25.3585   20.9704   -1.1850 C.3     1  UNL1        0.1521
      6 N          25.7542   22.3648   -0.7992 N.am    1  UNL1       -0.2716
      7 C          25.2463   23.1292    0.3873 C.3     1  UNL1        0.0960
      8 C          25.9056   24.4766    0.3876 C.3     1  UNL1        0.0484
      9 C          26.8210   24.5449   -0.7988 C.3     1  UNL1        0.1274
     10 C          26.7274   23.2399   -1.5323 C.2     1  UNL1        0.2418
     11 O          27.4757   22.8739   -2.7797 O.2     1  UNL1       -0.2732
     12 N          27.7986   24.9017   -1.8790 N.am    1  UNL1       -0.2999
     13 C          29.2655   24.9655   -1.5717 C.2     1  UNL1        0.2232
     14 O          29.7546   24.6726   -0.1844 O.2     1  UNL1       -0.2751
     15 C          30.2432   25.3223   -2.6520 C.3     1  UNL1        0.0946
     16 H          27.4776   25.0939   -2.7896 H       1  UNL1        0.1498
     17 C          27.1189   25.9246   -0.2911 C.3     1  UNL1        0.0269
     18 C          26.3813   27.1051   -0.8502 C.3     1  UNL1        0.0021
     19 C          24.9199   26.9937   -1.1696 C.3     1  UNL1        0.0001
     20 C          27.1050   28.3968   -1.0899 C.3     1  UNL1        0.0001
     21 C          25.8206   20.3935   -2.4902 C.3     1  UNL1        0.0339
     22 C          26.0056   18.9117   -2.6317 C.3     1  UNL1        0.0286
     23 C          24.8485   18.0465   -3.0349 C.ar    1  UNL1       -0.0221
     24 C          23.8245   18.5656   -4.0004 C.ar    1  UNL1       -0.0043
     25 C          22.6674   17.7005   -4.4035 C.ar    1  UNL1       -0.0003
     26 C          22.5343   16.3162   -3.8412 C.ar    1  UNL1       -0.0000
     27 C          23.5582   15.7972   -2.8758 C.ar    1  UNL1       -0.0003
     28 C          24.7153   16.6623   -2.4726 C.ar    1  UNL1       -0.0043
     29 C          22.2250   19.0221    0.2765 C.3     1  UNL1        0.1084
     30 C          21.6911   19.6280    1.5405 C.3     1  UNL1        0.1781
     31 O          22.4060   19.4039    2.8399 O.3     1  UNL1       -0.3777
     32 H          23.2136   18.8671    2.8629 H       1  UNL1        0.2106
     33 C          20.4421   20.4580    1.5050 C.3     1  UNL1        0.0840
     34 N          19.3838   20.5042    2.5671 N.4     1  UNL1        0.2539
     35 C          18.3198   21.4623    2.1198 C.3     1  UNL1        0.1322
     36 C          18.7206   22.0083    0.7814 C.3     1  UNL1        0.1755
     37 C          20.0322   21.3875    0.4014 C.3     1  UNL1        0.0931
     38 H          19.3871   19.9767    3.4401 H       1  UNL1        0.2035
     39 H          18.5906   20.6408    3.1937 H       1  UNL1        0.2035
     40 O          17.9458   23.0006   -0.0340 O.3     1  UNL1       -0.3500
     41 C          18.5115   24.3661   -0.2894 C.3     1  UNL1        0.1423
     42 C          18.8167   25.2788    0.8612 C.3     1  UNL1        0.0321
     43 C          20.2396   25.5200    1.2703 C.3     1  UNL1        0.0027
     44 C          21.9011   17.5986   -0.0681 C.3     1  UNL1        0.0487
     45 F          18.2217   18.8587   -3.5141 F       1  UNL1       -0.2041
     46 C          18.7828   17.9019   -2.5042 C.ar    1  UNL1        0.1421
     47 C          20.0614   18.2286   -1.7911 C.ar    1  UNL1        0.0256
     48 C          20.6224   17.2719   -0.7812 C.ar    1  UNL1       -0.0160
     49 C          19.9050   15.9885   -0.4844 C.ar    1  UNL1        0.0256
     50 C          18.6264   15.6618   -1.1975 C.ar    1  UNL1        0.1421
     51 F          17.9089   14.3784   -0.9008 F       1  UNL1       -0.2041
     52 C          18.0654   16.6185   -2.2074 C.ar    1  UNL1        0.0592
@<TRIPOS>UNITY_ATOM_ATTR
34 1
charge 1
@<TRIPOS>BOND
     1    45    46    1
     2    46    47   ar
     3    47    48   ar
     4    48    49   ar
     5    49    50   ar
     6    50    51    1
     7    50    52   ar
     8    48    44    1
     9    29    44    1
    10    29     1    1
    11     1     2   am
    12     2     3    2
    13     2     5    1
    14     5     6    1
    15     6     7    1
    16     7     8    1
    17     8     9    1
    18     9    12    1
    19    12    13   am
    20    13    14    2
    21    13    15    1
    22     9    17    1
    23    17    18    1
    24    18    19    1
    25    18    20    1
    26     9    10    1
    27    10    11    2
    28     5    21    1
    29    21    22    1
    30    22    23    1
    31    23    24   ar
    32    24    25   ar
    33    25    26   ar
    34    26    27   ar
    35    27    28   ar
    36    29    30    1
    37    30    31    1
    38    30    33    1
    39    33    34    1
    40    34    35    1
    41    35    36    1
    42    36    40    1
    43    40    41    1
    44    41    42    1
    45    42    43    1
    46    36    37    1
    47    52    46   ar
    48    10     6   am
    49    28    23   ar
    50    33    37    1
    51     1     4    1
    52    12    16    1
    53    31    32    1
    54    34    38    1
    55    34    39    1
@<TRIPOS>MOLECULE
*****
 52 55 0 0 0
SMALL
GASTEIGER

@<TRIPOS>ATOM
      1 N          23.1492   20.4186   -0.4623 N.am    1  UNL1       -0.3017
      2 C          24.5868   20.6903   -0.1314 C.2     1  UNL1        0.2406
      3 O          25.3097   19.8135    0.8477 O.2     1  UNL1       -0.2733
      4 H          22.6747   20.9940   -1.1050 H       1  UNL1        0.1495
      5 C          25.3015   21.8388   -0.7797 C.3     1  UNL1        0.1521
      6 N          25.5218   23.1115   -0.0172 N.am    1  UNL1       -0.2716
      7 C          26.7532   23.9666   -0.0658 C.3     1  UNL1        0.0960
      8 C          26.5418   25.1364    0.8492 C.3     1  UNL1        0.0484
      9 C          25.1796   25.0041    1.4634 C.3     1  UNL1        0.1274
     10 C          24.5493   23.7528    0.9280 C.2     1  UNL1        0.2418
     11 O          23.1858   23.2337    1.2764 O.2     1  UNL1       -0.2732
     12 N          23.8931   25.1394    2.2226 N.am    1  UNL1       -0.2999
     13 C          22.7262   25.8477    1.6006 C.2     1  UNL1        0.2232
     14 O          22.8459   26.4207    0.2196 O.2     1  UNL1       -0.2751
     15 C          21.4396   25.9830    2.3599 C.3     1  UNL1        0.0946
     16 H          23.8146   24.7633    3.1290 H       1  UNL1        0.1498
     17 C          25.5411   26.2838    2.1575 C.3     1  UNL1        0.0269
     18 C          26.1828   27.3995    1.3872 C.3     1  UNL1        0.0021
     19 C          27.4263   28.0545    1.9114 C.3     1  UNL1        0.0001
     20 C          25.5811   27.8603    0.0928 C.3     1  UNL1        0.0001
     21 C          25.7959   21.7144   -2.1904 C.3     1  UNL1        0.0339
     22 C          25.9652   20.3585   -2.8090 C.3     1  UNL1        0.0286
     23 C          26.1002   20.2245   -4.2969 C.ar    1  UNL1       -0.0221
     24 C          25.6516   21.3399   -5.1941 C.ar    1  UNL1       -0.0043
     25 C          25.7866   21.2059   -6.6820 C.ar    1  UNL1       -0.0003
     26 C          26.3701   19.9566   -7.2727 C.ar    1  UNL1       -0.0000
     27 C          26.8187   18.8414   -6.3755 C.ar    1  UNL1       -0.0003
     28 C          26.6837   18.9753   -4.8876 C.ar    1  UNL1       -0.0043
     29 C          22.4345   19.2700    0.1859 C.3     1  UNL1        0.1084
     30 C          21.9873   19.3748    1.6138 C.3     1  UNL1        0.1781
     31 O          22.9179   18.9803    2.7221 O.3     1  UNL1       -0.3777
     32 H          23.8089   18.6574    2.5154 H       1  UNL1        0.2106
     33 C          20.6093   19.8740    1.9335 C.3     1  UNL1        0.0840
     34 N          19.9270   19.7860    3.2664 N.4     1  UNL1        0.2539
     35 C          18.5678   20.4065    3.1331 C.3     1  UNL1        0.1322
     36 C          18.4102   20.8780    1.7178 C.3     1  UNL1        0.1755
     37 C          19.6720   20.5489    0.9765 C.3     1  UNL1        0.0931
     38 H          20.3184   19.3762    4.1145 H       1  UNL1        0.2035
     39 H          19.3402   19.7994    4.1006 H       1  UNL1        0.2035
     40 O          17.2030   21.5589    1.1446 O.3     1  UNL1       -0.3500
     41 C          17.3700   22.7167    0.2056 C.3     1  UNL1        0.1423
     42 C          17.9762   23.9984    0.6957 C.3     1  UNL1        0.0321
     43 C          18.9817   24.7235   -0.1489 C.3     1  UNL1        0.0027
     44 C          22.1672   18.0168   -0.5938 C.3     1  UNL1        0.0487
     45 F          19.4129   19.5598   -4.7210 F       1  UNL1       -0.2041
     46 C          19.5617   18.6844   -3.5120 C.ar    1  UNL1        0.1421
     47 C          20.7900   18.7883   -2.6574 C.ar    1  UNL1        0.0256
     48 C          20.9387   17.9129   -1.4484 C.ar    1  UNL1       -0.0160
     49 C          19.8592   16.9337   -1.0940 C.ar    1  UNL1        0.0256
     50 C          18.6308   16.8299   -1.9486 C.ar    1  UNL1        0.1421
     51 F          17.5512   15.8507   -1.5942 F       1  UNL1       -0.2041
     52 C          18.4821   17.7052   -3.1576 C.ar    1  UNL1        0.0592
@<TRIPOS>UNITY_ATOM_ATTR
34 1
charge 1
@<TRIPOS>BOND
     1    45    46    1
     2    46    47   ar
     3    47    48   ar
     4    48    49   ar
     5    49    50   ar
     6    50    51    1
     7    50    52   ar
     8    48    44    1
     9    29    44    1
    10    29     1    1
    11     1     2   am
    12     2     3    2
    13     2     5    1
    14     5     6    1
    15     6     7    1
    16     7     8    1
    17     8     9    1
    18     9    12    1
    19    12    13   am
    20    13    14    2
    21    13    15    1
    22     9    17    1
    23    17    18    1
    24    18    19    1
    25    18    20    1
    26     9    10    1
    27    10    11    2
    28     5    21    1
    29    21    22    1
    30    22    23    1
    31    23    24   ar
    32    24    25   ar
    33    25    26   ar
    34    26    27   ar
    35    27    28   ar
    36    29    30    1
    37    30    31    1
    38    30    33    1
    39    33    34    1
    40    34    35    1
    41    35    36    1
    42    36    40    1
    43    40    41    1
    44    41    42    1
    45    42    43    1
    46    36    37    1
    47    52    46   ar
    48    10     6   am
    49    28    23   ar
    50    33    37    1
    51     1     4    1
    52    12    16    1
    53    31    32    1
    54    34    38    1
    55    34    39    1
@<TRIPOS>MOLECULE
*****
 52 55 0 0 0
SMALL
GASTEIGER

@<TRIPOS>ATOM
      1 N          21.2986   17.3751    0.9459 N.am    1  UNL1       -0.3017
      2 C          21.6542   15.9322    1.1499 C.2     1  UNL1        0.2406
      3 O          22.4866   15.5245    2.3294 O.2     1  UNL1       -0.2733
      4 H          20.7523   17.6427    0.1718 H       1  UNL1        0.1495
      5 C          21.1776   14.8971    0.1746 C.3     1  UNL1        0.1521
      6 N          19.9445   15.1476   -0.6419 N.am    1  UNL1       -0.2716
      7 C          18.5544   14.6995   -0.2998 C.3     1  UNL1        0.0960
      8 C          17.6357   15.1650   -1.3904 C.3     1  UNL1        0.0484
      9 C          18.4580   15.9009   -2.4066 C.3     1  UNL1        0.1274
     10 C          19.8849   15.8901   -1.9440 C.2     1  UNL1        0.2418
     11 O          21.0480   16.5125   -2.6579 O.2     1  UNL1       -0.2732
     12 N          19.0060   16.6727   -3.5701 N.am    1  UNL1       -0.2999
     13 C          18.8537   18.1642   -3.6193 C.2     1  UNL1        0.2232
     14 O          18.1536   18.8837   -2.5049 O.2     1  UNL1       -0.2751
     15 C          19.4017   18.9361   -4.7829 C.3     1  UNL1        0.0946
     16 H          19.4655   16.2004   -4.3016 H       1  UNL1        0.1498
     17 C          17.1457   16.0730   -3.1124 C.3     1  UNL1        0.0269
     18 C          16.5056   14.9043   -3.8012 C.3     1  UNL1        0.0021
     19 C          17.3588   13.8766   -4.4836 C.3     1  UNL1        0.0001
     20 C          15.0123   14.7634   -3.8075 C.3     1  UNL1        0.0001
     21 C          21.9340   13.6116    0.0157 C.3     1  UNL1        0.0339
     22 C          21.3569   12.3317    0.5435 C.3     1  UNL1        0.0286
     23 C          22.0277   11.6190    1.6802 C.ar    1  UNL1       -0.0221
     24 C          23.3535   12.1013    2.1899 C.ar    1  UNL1       -0.0043
     25 C          24.0244   11.3886    3.3266 C.ar    1  UNL1       -0.0003
     26 C          23.3694   10.1936    3.9536 C.ar    1  UNL1       -0.0000
     27 C          22.0436    9.7113    3.4439 C.ar    1  UNL1       -0.0003
     28 C          21.3728   10.4240    2.3072 C.ar    1  UNL1       -0.0043
     29 C          21.7753   18.4102    1.9213 C.3     1  UNL1        0.1084
     30 C          20.8008   19.0683    2.8525 C.3     1  UNL1        0.1781
     31 O          20.9188   18.8577    4.3330 O.3     1  UNL1       -0.3777
     32 H          21.6253   18.2959    4.6881 H       1  UNL1        0.2106
     33 C          19.7082   19.9372    2.3033 C.3     1  UNL1        0.0840
     34 N          18.6846   20.6812    3.1087 N.4     1  UNL1        0.2539
     35 C          17.7912   21.4183    2.1555 C.3     1  UNL1        0.1322
     36 C          18.2628   21.1299    0.7610 C.3     1  UNL1        0.1755
     37 C          19.4475   20.2145    0.8524 C.3     1  UNL1        0.0931
     38 H          18.6093   20.6851    4.1259 H       1  UNL1        0.2035
     39 H          17.9326   21.2376    3.5152 H       1  UNL1        0.2035
     40 O          17.6561   21.6631   -0.5028 O.3     1  UNL1       -0.3500
     41 C          18.5197   22.3548   -1.5156 C.3     1  UNL1        0.1423
     42 C          18.6251   23.8512   -1.5146 C.3     1  UNL1        0.0321
     43 C          18.7951   24.5902   -0.2205 C.3     1  UNL1        0.0027
     44 C          23.2265   18.7872    1.9655 C.3     1  UNL1        0.0487
     45 F          26.8804   16.2438   -0.7141 F       1  UNL1       -0.2041
     46 C          25.9023   17.3756   -0.6031 C.ar    1  UNL1        0.1421
     47 C          25.0534   17.5155    0.6256 C.ar    1  UNL1        0.0256
     48 C          24.0754   18.6473    0.7367 C.ar    1  UNL1       -0.0160
     49 C          23.9462   19.6393   -0.3810 C.ar    1  UNL1        0.0256
     50 C          24.7951   19.4995   -1.6097 C.ar    1  UNL1        0.1421
     51 F          24.6660   20.4915   -2.7275 F       1  UNL1       -0.2041
     52 C          25.7732   18.3676   -1.7207 C.ar    1  UNL1        0.0592
@<TRIPOS>UNITY_ATOM_ATTR
34 1
charge 1
@<TRIPOS>BOND
     1    45    46    1
     2    46    47   ar
     3    47    48   ar
     4    48    49   ar
     5    49    50   ar
     6    50    51    1
     7    50    52   ar
     8    48    44    1
     9    29    44    1
    10    29     1    1
    11     1     2   am
    12     2     3    2
    13     2     5    1
    14     5     6    1
    15     6     7    1
    16     7     8    1
    17     8     9    1
    18     9    12    1
    19    12    13   am
    20    13    14    2
    21    13    15    1
    22     9    17    1
    23    17    18    1
    24    18    19    1
    25    18    20    1
    26     9    10    1
    27    10    11    2
    28     5    21    1
    29    21    22    1
    30    22    23    1
    31    23    24   ar
    32    24    25   ar
    33    25    26   ar
    34    26    27   ar
    35    27    28   ar
    36    29    30    1
    37    30    31    1
    38    30    33    1
    39    33    34    1
    40    34    35    1
    41    35    36    1
    42    36    40    1
    43    40    41    1
    44    41    42    1
    45    42    43    1
    46    36    37    1
    47    52    46   ar
    48    10     6   am
    49    28    23   ar
    50    33    37    1
    51     1     4    1
    52    12    16    1
    53    31    32    1
    54    34    38    1
    55    34    39    1
@<TRIPOS>MOLECULE
*****
 52 55 0 0 0
SMALL
GASTEIGER

@<TRIPOS>ATOM
      1 N          23.0834   20.2218   -0.7622 N.am    1  UNL1       -0.3017
      2 C          24.5325   20.4200   -0.4293 C.2     1  UNL1        0.2406
      3 O          25.1489   19.6692    0.7138 O.2     1  UNL1       -0.2733
      4 H          22.6788   20.7145   -1.5123 H       1  UNL1        0.1495
      5 C          25.3651   21.3689   -1.2393 C.3     1  UNL1        0.1521
      6 N          25.5364   22.7891   -0.7883 N.am    1  UNL1       -0.2716
      7 C          26.5589   23.7597   -1.3005 C.3     1  UNL1        0.0960
      8 C          26.3697   25.0587   -0.5746 C.3     1  UNL1        0.0484
      9 C          25.2301   24.8909    0.3863 C.3     1  UNL1        0.1274
     10 C          24.7151   23.4883    0.2543 C.2     1  UNL1        0.2418
     11 O          23.5785   22.8898    1.0288 O.2     1  UNL1       -0.2732
     12 N          24.1511   25.0220    1.4200 N.am    1  UNL1       -0.2999
     13 C          22.9254   25.8351    1.1256 C.2     1  UNL1        0.2232
     14 O          22.7787   26.5169   -0.2023 O.2     1  UNL1       -0.2751
     15 C          21.8463   25.9662    2.1593 C.3     1  UNL1        0.0946
     16 H          24.2474   24.5745    2.2916 H       1  UNL1        0.1498
     17 C          25.5196   26.3209    0.7345 C.3     1  UNL1        0.0269
     18 C          26.5649   26.6465    1.7598 C.3     1  UNL1        0.0021
     19 C          26.8757   25.6659    2.8515 C.3     1  UNL1        0.0001
     20 C          27.2994   27.9526    1.6935 C.3     1  UNL1        0.0001
     21 C          26.0265   20.8975   -2.5004 C.3     1  UNL1        0.0339
     22 C          25.8422   19.4816   -2.9600 C.3     1  UNL1        0.0286
     23 C          24.8741   19.1711   -4.0629 C.ar    1  UNL1       -0.0221
     24 C          23.6197   18.4040   -3.7659 C.ar    1  UNL1       -0.0043
     25 C          22.6516   18.0935   -4.8688 C.ar    1  UNL1       -0.0003
     26 C          22.9379   18.5501   -6.2687 C.ar    1  UNL1       -0.0000
     27 C          24.1923   19.3171   -6.5656 C.ar    1  UNL1       -0.0003
     28 C          25.1604   19.6276   -5.4627 C.ar    1  UNL1       -0.0043
     29 C          22.2507   19.2729    0.0480 C.3     1  UNL1        0.1084
     30 C          21.8664   19.6252    1.4544 C.3     1  UNL1        0.1781
     31 O          22.8448   19.4205    2.5729 O.3     1  UNL1       -0.3777
     32 H          23.7260   19.0603    2.3866 H       1  UNL1        0.2106
     33 C          20.5038   20.1822    1.7425 C.3     1  UNL1        0.0840
     34 N          19.7009   19.9483    2.9878 N.4     1  UNL1        0.2539
     35 C          18.4057   20.6925    2.8508 C.3     1  UNL1        0.1322
     36 C          18.4081   21.3863    1.5209 C.3     1  UNL1        0.1755
     37 C          19.7048   21.0709    0.8359 C.3     1  UNL1        0.0931
     38 H          19.9857   19.3826    3.7873 H       1  UNL1        0.2035
     39 H          19.0446   19.8825    3.7658 H       1  UNL1        0.2035
     40 O          17.3073   22.2446    0.9722 O.3     1  UNL1       -0.3500
     41 C          17.1204   23.6424    1.4835 C.3     1  UNL1        0.1423
     42 C          18.2441   24.6317    1.3900 C.3     1  UNL1        0.0321
     43 C          18.9122   24.8854    0.0712 C.3     1  UNL1        0.0027
     44 C          21.8023   17.9716   -0.5484 C.3     1  UNL1        0.0487
     45 F          24.8536   14.8263    2.2439 F       1  UNL1       -0.2041
     46 C          23.5292   15.1188    1.6032 C.ar    1  UNL1        0.1421
     47 C          23.3279   16.3989    0.8477 C.ar    1  UNL1        0.0256
     48 C          22.0036   16.6914    0.2071 C.ar    1  UNL1       -0.0160
     49 C          20.8804   15.7038    0.3219 C.ar    1  UNL1        0.0256
     50 C          21.0817   14.4238    1.0774 C.ar    1  UNL1        0.1421
     51 F          19.9586   13.4361    1.1923 F       1  UNL1       -0.2041
     52 C          22.4061   14.1313    1.7181 C.ar    1  UNL1        0.0592
@<TRIPOS>UNITY_ATOM_ATTR
34 1
charge 1
@<TRIPOS>BOND
     1    45    46    1
     2    46    47   ar
     3    47    48   ar
     4    48    49   ar
     5    49    50   ar
     6    50    51    1
     7    50    52   ar
     8    48    44    1
     9    29    44    1
    10    29     1    1
    11     1     2   am
    12     2     3    2
    13     2     5    1
    14     5     6    1
    15     6     7    1
    16     7     8    1
    17     8     9    1
    18     9    12    1
    19    12    13   am
    20    13    14    2
    21    13    15    1
    22     9    17    1
    23    17    18    1
    24    18    19    1
    25    18    20    1
    26     9    10    1
    27    10    11    2
    28     5    21    1
    29    21    22    1
    30    22    23    1
    31    23    24   ar
    32    24    25   ar
    33    25    26   ar
    34    26    27   ar
    35    27    28   ar
    36    29    30    1
    37    30    31    1
    38    30    33    1
    39    33    34    1
    40    34    35    1
    41    35    36    1
    42    36    40    1
    43    40    41    1
    44    41    42    1
    45    42    43    1
    46    36    37    1
    47    52    46   ar
    48    10     6   am
    49    28    23   ar
    50    33    37    1
    51     1     4    1
    52    12    16    1
    53    31    32    1
    54    34    38    1
    55    34    39    1
@<TRIPOS>MOLECULE
*****
 52 55 0 0 0
SMALL
GASTEIGER

@<TRIPOS>ATOM
      1 N          23.2161   20.1936   -0.8233 N.am    1  UNL1       -0.3017
      2 C          24.6107   20.4809   -0.3517 C.2     1  UNL1        0.2406
      3 O          25.1434   19.7991    0.8738 O.2     1  UNL1       -0.2733
      4 H          22.8664   20.6410   -1.6275 H       1  UNL1        0.1495
      5 C          25.4726   21.4498   -1.1054 C.3     1  UNL1        0.1521
      6 N          25.9825   21.0952   -2.4707 N.am    1  UNL1       -0.2716
      7 C          25.9096   21.9631   -3.6920 C.3     1  UNL1        0.0960
      8 C          26.5369   21.2146   -4.8307 C.3     1  UNL1        0.0484
      9 C          26.9974   19.8841   -4.3131 C.3     1  UNL1        0.1274
     10 C          26.6548   19.8103   -2.8546 C.2     1  UNL1        0.2418
     11 O          26.9352   18.6547   -1.9404 O.2     1  UNL1       -0.2732
     12 N          27.5538   18.5091   -4.0906 N.am    1  UNL1       -0.2999
     13 C          26.7636   17.3039   -4.5068 C.2     1  UNL1        0.2232
     14 O          25.4170   17.4739   -5.1454 O.2     1  UNL1       -0.2751
     15 C          27.3200   15.9287   -4.2844 C.3     1  UNL1        0.0946
     16 H          28.4376   18.3975   -3.6715 H       1  UNL1        0.1498
     17 C          27.4564   19.6705   -5.7250 C.3     1  UNL1        0.0269
     18 C          28.9140   19.7741   -6.0637 C.3     1  UNL1        0.0021
     19 C          29.7814   20.7671   -5.3486 C.3     1  UNL1        0.0001
     20 C          29.5041   18.8847   -7.1176 C.3     1  UNL1        0.0001
     21 C          25.8247   22.7735   -0.4937 C.3     1  UNL1        0.0339
     22 C          25.0237   23.3042    0.6581 C.3     1  UNL1        0.0286
     23 C          25.2411   24.7083    1.1390 C.ar    1  UNL1       -0.0221
     24 C          26.5981   25.1370    1.6134 C.ar    1  UNL1       -0.0043
     25 C          26.8154   26.5411    2.0942 C.ar    1  UNL1       -0.0003
     26 C          25.6759   27.5165    2.1007 C.ar    1  UNL1       -0.0000
     27 C          24.3190   27.0878    1.6264 C.ar    1  UNL1       -0.0003
     28 C          24.1016   25.6837    1.1455 C.ar    1  UNL1       -0.0043
     29 C          22.3541   19.2245   -0.0695 C.3     1  UNL1        0.1084
     30 C          21.8416   19.5805    1.2945 C.3     1  UNL1        0.1781
     31 O          22.6690   19.2792    2.5088 O.3     1  UNL1       -0.3777
     32 H          23.5355   18.8541    2.4120 H       1  UNL1        0.2106
     33 C          20.5015   20.2378    1.4443 C.3     1  UNL1        0.0840
     34 N          19.7099   20.3465    2.7137 N.4     1  UNL1        0.2539
     35 C          18.4370   21.0776    2.4049 C.3     1  UNL1        0.1322
     36 C          18.4420   21.4207    0.9446 C.3     1  UNL1        0.1755
     37 C          19.7180   20.9016    0.3509 C.3     1  UNL1        0.0931
     38 H          19.9882   19.9865    3.6266 H       1  UNL1        0.2035
     39 H          19.0631   20.4976    3.4879 H       1  UNL1        0.2035
     40 O          17.3610   22.1540    0.2075 O.3     1  UNL1       -0.3500
     41 C          17.6977   22.9562   -1.0144 C.3     1  UNL1        0.1423
     42 C          18.6841   24.0828   -0.9237 C.3     1  UNL1        0.0321
     43 C          18.6974   24.9725    0.2839 C.3     1  UNL1        0.0027
     44 C          22.0048   17.8996   -0.6798 C.3     1  UNL1        0.0487
     45 F          19.3926   19.3144   -4.9430 F       1  UNL1       -0.2041
     46 C          19.4952   18.4837   -3.6982 C.ar    1  UNL1        0.1421
     47 C          20.6987   18.6070   -2.8114 C.ar    1  UNL1        0.0256
     48 C          20.8013   17.7763   -1.5666 C.ar    1  UNL1       -0.0160
     49 C          19.7004   16.8224   -1.2087 C.ar    1  UNL1        0.0256
     50 C          18.4970   16.6992   -2.0955 C.ar    1  UNL1        0.1421
     51 F          17.3961   15.7452   -1.7376 F       1  UNL1       -0.2041
     52 C          18.3944   17.5298   -3.3403 C.ar    1  UNL1        0.0592
@<TRIPOS>UNITY_ATOM_ATTR
34 1
charge 1
@<TRIPOS>BOND
     1    45    46    1
     2    46    47   ar
     3    47    48   ar
     4    48    49   ar
     5    49    50   ar
     6    50    51    1
     7    50    52   ar
     8    48    44    1
     9    29    44    1
    10    29     1    1
    11     1     2   am
    12     2     3    2
    13     2     5    1
    14     5     6    1
    15     6     7    1
    16     7     8    1
    17     8     9    1
    18     9    12    1
    19    12    13   am
    20    13    14    2
    21    13    15    1
    22     9    17    1
    23    17    18    1
    24    18    19    1
    25    18    20    1
    26     9    10    1
    27    10    11    2
    28     5    21    1
    29    21    22    1
    30    22    23    1
    31    23    24   ar
    32    24    25   ar
    33    25    26   ar
    34    26    27   ar
    35    27    28   ar
    36    29    30    1
    37    30    31    1
    38    30    33    1
    39    33    34    1
    40    34    35    1
    41    35    36    1
    42    36    40    1
    43    40    41    1
    44    41    42    1
    45    42    43    1
    46    36    37    1
    47    52    46   ar
    48    10     6   am
    49    28    23   ar
    50    33    37    1
    51     1     4    1
    52    12    16    1
    53    31    32    1
    54    34    38    1
    55    34    39    1
@<TRIPOS>MOLECULE
*****
 52 55 0 0 0
SMALL
GASTEIGER

@<TRIPOS>ATOM
      1 N          19.8278   20.8130   -1.1147 N.am    1  UNL1       -0.3017
      2 C          19.2930   19.7401   -2.0163 C.2     1  UNL1        0.2406
      3 O          17.8119   19.5548   -2.1651 O.2     1  UNL1       -0.2733
      4 H          20.7998   20.9347   -1.0170 H       1  UNL1        0.1495
      5 C          20.2393   18.8526   -2.7691 C.3     1  UNL1        0.1521
      6 N          21.2582   18.0409   -2.0256 N.am    1  UNL1       -0.2716
      7 C          20.9775   16.8358   -1.1777 C.3     1  UNL1        0.0960
      8 C          22.2826   16.3418   -0.6274 C.3     1  UNL1        0.0484
      9 C          23.3700   17.2417   -1.1353 C.3     1  UNL1        0.1274
     10 C          22.7370   18.2917   -1.9994 C.2     1  UNL1        0.2418
     11 O          23.4562   19.3983   -2.7122 O.2     1  UNL1       -0.2732
     12 N          24.6454   17.9531   -1.4775 N.am    1  UNL1       -0.2999
     13 C          25.5754   17.3742   -2.5024 C.2     1  UNL1        0.2232
     14 O          25.2298   16.0841   -3.1849 O.2     1  UNL1       -0.2751
     15 C          26.8508   18.0857   -2.8446 C.3     1  UNL1        0.0946
     16 H          24.8722   18.7999   -1.0295 H       1  UNL1        0.1498
     17 C          24.2697   16.3404   -0.3428 C.3     1  UNL1        0.0269
     18 C          24.3015   16.4396    1.1536 C.3     1  UNL1        0.0021
     19 C          24.0859   15.2142    1.9913 C.3     1  UNL1        0.0001
     20 C          24.5487   17.7644    1.8123 C.3     1  UNL1        0.0001
     21 C          20.1666   18.7767   -4.2654 C.3     1  UNL1        0.0339
     22 C          19.6482   17.5355   -4.9292 C.3     1  UNL1        0.0286
     23 C          18.2713   17.0334   -4.6097 C.ar    1  UNL1       -0.0221
     24 C          18.0567   16.1316   -3.4304 C.ar    1  UNL1       -0.0043
     25 C          16.6798   15.6295   -3.1110 C.ar    1  UNL1       -0.0003
     26 C          15.5175   16.0292   -3.9708 C.ar    1  UNL1       -0.0000
     27 C          15.7321   16.9310   -5.1501 C.ar    1  UNL1       -0.0003
     28 C          17.1090   17.4331   -5.4695 C.ar    1  UNL1       -0.0043
     29 C          18.8814   21.7006   -0.3619 C.3     1  UNL1        0.1084
     30 C          18.8222   23.1672   -0.6710 C.3     1  UNL1        0.1781
     31 O          18.5922   23.6281   -2.0798 O.3     1  UNL1       -0.3777
     32 H          18.4818   22.9777   -2.7909 H       1  UNL1        0.2106
     33 C          18.9930   24.1730    0.4287 C.3     1  UNL1        0.0840
     34 N          18.0994   25.3480    0.6954 N.4     1  UNL1        0.2539
     35 C          18.6414   26.0816    1.8863 C.3     1  UNL1        0.1322
     36 C          19.8699   25.3599    2.3555 C.3     1  UNL1        0.1755
     37 C          20.0872   24.1804    1.4547 C.3     1  UNL1        0.0931
     38 H          17.2691   25.6032    0.1608 H       1  UNL1        0.2035
     39 H          17.5908   26.1785    0.9985 H       1  UNL1        0.2035
     40 O          20.7301   25.7495    3.5209 O.3     1  UNL1       -0.3500
     41 C          21.8981   26.6683    3.3170 C.3     1  UNL1        0.1423
     42 C          21.8675   27.6875    2.2168 C.3     1  UNL1        0.0321
     43 C          22.8584   27.6086    1.0935 C.3     1  UNL1        0.0027
     44 C          17.9943   21.1216    0.7000 C.3     1  UNL1        0.0487
     45 F          18.4769   20.3069    5.8092 F       1  UNL1       -0.2041
     46 C          18.8347   19.9490    4.3972 C.ar    1  UNL1        0.1421
     47 C          18.2356   20.7142    3.2546 C.ar    1  UNL1        0.0256
     48 C          18.5934   20.3562    1.8426 C.ar    1  UNL1       -0.0160
     49 C          19.5503   19.2330    1.5731 C.ar    1  UNL1        0.0256
     50 C          20.1494   18.4678    2.7157 C.ar    1  UNL1        0.1421
     51 F          21.1064   17.3445    2.4462 F       1  UNL1       -0.2041
     52 C          19.7916   18.8257    4.1277 C.ar    1  UNL1        0.0592
@<TRIPOS>UNITY_ATOM_ATTR
34 1
charge 1
@<TRIPOS>BOND
     1    45    46    1
     2    46    47   ar
     3    47    48   ar
     4    48    49   ar
     5    49    50   ar
     6    50    51    1
     7    50    52   ar
     8    48    44    1
     9    29    44    1
    10    29     1    1
    11     1     2   am
    12     2     3    2
    13     2     5    1
    14     5     6    1
    15     6     7    1
    16     7     8    1
    17     8     9    1
    18     9    12    1
    19    12    13   am
    20    13    14    2
    21    13    15    1
    22     9    17    1
    23    17    18    1
    24    18    19    1
    25    18    20    1
    26     9    10    1
    27    10    11    2
    28     5    21    1
    29    21    22    1
    30    22    23    1
    31    23    24   ar
    32    24    25   ar
    33    25    26   ar
    34    26    27   ar
    35    27    28   ar
    36    29    30    1
    37    30    31    1
    38    30    33    1
    39    33    34    1
    40    34    35    1
    41    35    36    1
    42    36    40    1
    43    40    41    1
    44    41    42    1
    45    42    43    1
    46    36    37    1
    47    52    46   ar
    48    10     6   am
    49    28    23   ar
    50    33    37    1
    51     1     4    1
    52    12    16    1
    53    31    32    1
    54    34    38    1
    55    34    39    1
@<TRIPOS>MOLECULE
*****
 52 55 0 0 0
SMALL
GASTEIGER

@<TRIPOS>ATOM
      1 N          19.4858   20.8434   -1.4987 N.am    1  UNL1       -0.3017
      2 C          18.9021   19.7609   -2.3573 C.2     1  UNL1        0.2406
      3 O          17.4260   19.4950   -2.3289 O.2     1  UNL1       -0.2733
      4 H          20.4546   21.0179   -1.5173 H       1  UNL1        0.1495
      5 C          19.7943   18.9442   -3.2444 C.3     1  UNL1        0.1521
      6 N          20.9641   18.2096   -2.6597 N.am    1  UNL1       -0.2716
      7 C          22.3926   18.3335   -3.1002 C.3     1  UNL1        0.0960
      8 C          23.2222   17.4226   -2.2445 C.3     1  UNL1        0.0484
      9 C          22.3063   16.7357   -1.2752 C.3     1  UNL1        0.1274
     10 C          20.9108   17.2221   -1.5318 C.2     1  UNL1        0.2418
     11 O          19.6783   16.7960   -0.7907 O.2     1  UNL1       -0.2732
     12 N          21.6537   15.9112   -0.2056 N.am    1  UNL1       -0.2999
     13 C          21.3535   14.4626   -0.4537 C.2     1  UNL1        0.2232
     14 O          21.7060   13.8386   -1.7713 O.2     1  UNL1       -0.2751
     15 C          20.7009   13.6380    0.6160 C.3     1  UNL1        0.0946
     16 H          21.4224   16.3208    0.6593 H       1  UNL1        0.1498
     17 C          23.5655   16.0770   -0.7950 C.3     1  UNL1        0.0269
     18 C          24.1805   16.4944    0.5079 C.3     1  UNL1        0.0021
     19 C          24.3801   15.4859    1.6003 C.3     1  UNL1        0.0001
     20 C          24.5958   17.9202    0.7186 C.3     1  UNL1        0.0001
     21 C          19.5167   18.8621   -4.7162 C.3     1  UNL1        0.0339
     22 C          19.3014   17.5272   -5.3655 C.3     1  UNL1        0.0286
     23 C          17.9530   17.1703   -5.9173 C.ar    1  UNL1       -0.0221
     24 C          16.7098   17.5978   -5.1948 C.ar    1  UNL1       -0.0043
     25 C          15.3614   17.2409   -5.7466 C.ar    1  UNL1       -0.0003
     26 C          15.2562   16.4564   -7.0208 C.ar    1  UNL1       -0.0000
     27 C          16.4993   16.0289   -7.7432 C.ar    1  UNL1       -0.0003
     28 C          17.8477   16.3858   -7.1914 C.ar    1  UNL1       -0.0043
     29 C          18.5935   21.6601   -0.6116 C.3     1  UNL1        0.1084
     30 C          18.4995   23.1446   -0.8046 C.3     1  UNL1        0.1781
     31 O          18.2786   23.7101   -2.1763 O.3     1  UNL1       -0.3777
     32 H          18.1965   23.1157   -2.9385 H       1  UNL1        0.2106
     33 C          18.6264   24.0638    0.3740 C.3     1  UNL1        0.0840
     34 N          17.7602   24.0518    1.5986 N.4     1  UNL1        0.2539
     35 C          18.2401   25.1369    2.5164 C.3     1  UNL1        0.1322
     36 C          19.4029   25.8194    1.8590 C.3     1  UNL1        0.1755
     37 C          19.6416   25.1562    0.5349 C.3     1  UNL1        0.0931
     38 H          16.9815   23.4173    1.7760 H       1  UNL1        0.2035
     39 H          17.2621   24.1656    2.4814 H       1  UNL1        0.2035
     40 O          20.1890   26.9641    2.4261 O.3     1  UNL1       -0.3500
     41 C          21.5561   26.7260    2.9955 C.3     1  UNL1        0.1423
     42 C          22.1468   25.3473    2.9766 C.3     1  UNL1        0.0321
     43 C          23.3029   25.0390    2.0719 C.3     1  UNL1        0.0027
     44 C          17.7953   20.9922    0.4686 C.3     1  UNL1        0.0487
     45 F          21.4105   17.7666    2.3463 F       1  UNL1       -0.2041
     46 C          20.3016   18.7502    2.5762 C.ar    1  UNL1        0.1421
     47 C          19.6029   19.3794    1.4075 C.ar    1  UNL1        0.0256
     48 C          18.4940   20.3630    1.6374 C.ar    1  UNL1       -0.0160
     49 C          18.0839   20.7174    3.0360 C.ar    1  UNL1        0.0256
     50 C          18.7826   20.0883    4.2047 C.ar    1  UNL1        0.1421
     51 F          18.3724   20.4427    5.6034 F       1  UNL1       -0.2041
     52 C          19.8915   19.1046    3.9748 C.ar    1  UNL1        0.0592
@<TRIPOS>UNITY_ATOM_ATTR
34 1
charge 1
@<TRIPOS>BOND
     1    45    46    1
     2    46    47   ar
     3    47    48   ar
     4    48    49   ar
     5    49    50   ar
     6    50    51    1
     7    50    52   ar
     8    48    44    1
     9    29    44    1
    10    29     1    1
    11     1     2   am
    12     2     3    2
    13     2     5    1
    14     5     6    1
    15     6     7    1
    16     7     8    1
    17     8     9    1
    18     9    12    1
    19    12    13   am
    20    13    14    2
    21    13    15    1
    22     9    17    1
    23    17    18    1
    24    18    19    1
    25    18    20    1
    26     9    10    1
    27    10    11    2
    28     5    21    1
    29    21    22    1
    30    22    23    1
    31    23    24   ar
    32    24    25   ar
    33    25    26   ar
    34    26    27   ar
    35    27    28   ar
    36    29    30    1
    37    30    31    1
    38    30    33    1
    39    33    34    1
    40    34    35    1
    41    35    36    1
    42    36    40    1
    43    40    41    1
    44    41    42    1
    45    42    43    1
    46    36    37    1
    47    52    46   ar
    48    10     6   am
    49    28    23   ar
    50    33    37    1
    51     1     4    1
    52    12    16    1
    53    31    32    1
    54    34    38    1
    55    34    39    1
@<TRIPOS>MOLECULE
*****
 52 55 0 0 0
SMALL
GASTEIGER

@<TRIPOS>ATOM
      1 N          22.9428   20.1406   -0.4341 N.am    1  UNL1       -0.3017
      2 C          24.3929   20.3357   -0.1040 C.2     1  UNL1        0.2406
      3 O          25.0438   19.4858    0.9468 O.2     1  UNL1       -0.2733
      4 H          22.5156   20.6984   -1.1238 H       1  UNL1        0.1495
      5 C          25.1922   21.3805   -0.8246 C.3     1  UNL1        0.1521
      6 N          25.7762   21.0803   -2.1732 N.am    1  UNL1       -0.2716
      7 C          25.8636   22.0333   -3.3283 C.3     1  UNL1        0.0960
      8 C          26.5168   21.3163   -4.4725 C.3     1  UNL1        0.0484
      9 C          26.8332   19.9201   -4.0246 C.3     1  UNL1        0.1274
     10 C          26.3755   19.7742   -2.6036 C.2     1  UNL1        0.2418
     11 O          26.4959   18.5392   -1.7609 O.2     1  UNL1       -0.2732
     12 N          27.2641   18.4921   -3.8669 N.am    1  UNL1       -0.2999
     13 C          28.7170   18.1619   -3.6929 C.2     1  UNL1        0.2232
     14 O          29.7388   19.2598   -3.6767 O.2     1  UNL1       -0.2751
     15 C          29.1479   16.7337   -3.5351 C.3     1  UNL1        0.0946
     16 H          26.5933   17.7715   -3.8775 H       1  UNL1        0.1498
     17 C          27.3810   19.7674   -5.4126 C.3     1  UNL1        0.0269
     18 C          26.6206   18.9776   -6.4364 C.3     1  UNL1        0.0021
     19 C          27.3464   18.0250   -7.3396 C.3     1  UNL1        0.0001
     20 C          25.1343   19.1404   -6.5570 C.3     1  UNL1        0.0001
     21 C          25.4075   22.7257   -0.1967 C.3     1  UNL1        0.0339
     22 C          26.5989   23.5513   -0.5822 C.3     1  UNL1        0.0286
     23 C          26.7549   24.9416   -0.0410 C.ar    1  UNL1       -0.0221
     24 C          26.6783   25.1838    1.4374 C.ar    1  UNL1       -0.0043
     25 C          26.8342   26.5740    1.9787 C.ar    1  UNL1       -0.0003
     26 C          27.0667   27.7220    1.0415 C.ar    1  UNL1       -0.0000
     27 C          27.1433   27.4797   -0.4368 C.ar    1  UNL1       -0.0003
     28 C          26.9874   26.0895   -0.9780 C.ar    1  UNL1       -0.0043
     29 C          22.1435   19.0957    0.2866 C.3     1  UNL1        0.1084
     30 C          21.6964   19.3347    1.6983 C.3     1  UNL1        0.1781
     31 O          22.5978   18.9740    2.8417 O.3     1  UNL1       -0.3777
     32 H          23.4698   18.5862    2.6682 H       1  UNL1        0.2106
     33 C          20.3479   19.9343    1.9666 C.3     1  UNL1        0.0840
     34 N          19.5974   19.8714    3.2638 N.4     1  UNL1        0.2539
     35 C          18.2987   20.6004    3.0838 C.3     1  UNL1        0.1322
     36 C          18.2468   21.1138    1.6753 C.3     1  UNL1        0.1755
     37 C          19.5132   20.7021    0.9848 C.3     1  UNL1        0.0931
     38 H          19.9144   19.4134    4.1183 H       1  UNL1        0.2035
     39 H          18.9740   19.9129    4.0701 H       1  UNL1        0.2035
     40 O          17.1253   21.9006    1.0645 O.3     1  UNL1       -0.3500
     41 C          16.9689   23.3573    1.3865 C.3     1  UNL1        0.1423
     42 C          18.1439   24.2821    1.2674 C.3     1  UNL1        0.0321
     43 C          18.7301   24.5803   -0.0807 C.3     1  UNL1        0.0027
     44 C          21.7913   17.8118   -0.4045 C.3     1  UNL1        0.0487
     45 F          17.2640   15.7649   -1.9257 F       1  UNL1       -0.2041
     46 C          18.3799   16.7463   -2.1299 C.ar    1  UNL1        0.1421
     47 C          19.5277   16.7884   -1.1651 C.ar    1  UNL1        0.0256
     48 C          20.6436   17.7697   -1.3694 C.ar    1  UNL1       -0.0160
     49 C          20.6117   18.7090   -2.5385 C.ar    1  UNL1        0.0256
     50 C          19.4640   18.6669   -3.5033 C.ar    1  UNL1        0.1421
     51 F          19.4321   19.6062   -4.6724 F       1  UNL1       -0.2041
     52 C          18.3481   17.6855   -3.2990 C.ar    1  UNL1        0.0592
@<TRIPOS>UNITY_ATOM_ATTR
34 1
charge 1
@<TRIPOS>BOND
     1    45    46    1
     2    46    47   ar
     3    47    48   ar
     4    48    49   ar
     5    49    50   ar
     6    50    51    1
     7    50    52   ar
     8    48    44    1
     9    29    44    1
    10    29     1    1
    11     1     2   am
    12     2     3    2
    13     2     5    1
    14     5     6    1
    15     6     7    1
    16     7     8    1
    17     8     9    1
    18     9    12    1
    19    12    13   am
    20    13    14    2
    21    13    15    1
    22     9    17    1
    23    17    18    1
    24    18    19    1
    25    18    20    1
    26     9    10    1
    27    10    11    2
    28     5    21    1
    29    21    22    1
    30    22    23    1
    31    23    24   ar
    32    24    25   ar
    33    25    26   ar
    34    26    27   ar
    35    27    28   ar
    36    29    30    1
    37    30    31    1
    38    30    33    1
    39    33    34    1
    40    34    35    1
    41    35    36    1
    42    36    40    1
    43    40    41    1
    44    41    42    1
    45    42    43    1
    46    36    37    1
    47    52    46   ar
    48    10     6   am
    49    28    23   ar
    50    33    37    1
    51     1     4    1
    52    12    16    1
    53    31    32    1
    54    34    38    1
    55    34    39    1
@<TRIPOS>MOLECULE
*****
 52 55 0 0 0
SMALL
GASTEIGER

@<TRIPOS>ATOM
      1 N          24.0094   17.3218   -0.2280 N.am    1  UNL1       -0.3017
      2 C          24.9281   18.5070   -0.2636 C.2     1  UNL1        0.2406
      3 O          25.2440   19.2492    1.0011 O.2     1  UNL1       -0.2733
      4 H          23.8020   16.8346   -1.0580 H       1  UNL1        0.1495
      5 C          25.5308   18.9500   -1.5637 C.3     1  UNL1        0.1521
      6 N          26.3226   17.9819   -2.3917 N.am    1  UNL1       -0.2716
      7 C          26.5143   18.0439   -3.8782 C.3     1  UNL1        0.0960
      8 C          27.3719   16.8820   -4.2839 C.3     1  UNL1        0.0484
      9 C          27.7103   16.1019   -3.0481 C.3     1  UNL1        0.1274
     10 C          27.0619   16.7816   -1.8788 C.2     1  UNL1        0.2418
     11 O          27.1390   16.3390   -0.4477 O.2     1  UNL1       -0.2732
     12 N          28.2059   15.1377   -2.0116 N.am    1  UNL1       -0.2999
     13 C          29.6397   15.1799   -1.5726 C.2     1  UNL1        0.2232
     14 O          30.5777   16.1863   -2.1702 O.2     1  UNL1       -0.2751
     15 C          30.1354   14.2155   -0.5360 C.3     1  UNL1        0.0946
     16 H          27.5903   14.4771   -1.6194 H       1  UNL1        0.1498
     17 C          28.4624   15.2206   -4.0008 C.3     1  UNL1        0.0269
     18 C          27.8777   13.9070   -4.4281 C.3     1  UNL1        0.0021
     19 C          28.7809   12.7550   -4.7554 C.3     1  UNL1        0.0001
     20 C          26.3899   13.7454   -4.5282 C.3     1  UNL1        0.0001
     21 C          25.3417   20.3612   -2.0358 C.3     1  UNL1        0.0339
     22 C          24.9416   21.4303   -1.0627 C.3     1  UNL1        0.0286
     23 C          25.8237   22.6261   -0.8577 C.ar    1  UNL1       -0.0221
     24 C          26.7394   23.0797   -1.9559 C.ar    1  UNL1       -0.0043
     25 C          27.6215   24.2755   -1.7509 C.ar    1  UNL1       -0.0003
     26 C          27.5878   25.0177   -0.4478 C.ar    1  UNL1       -0.0000
     27 C          26.6721   24.5642    0.6502 C.ar    1  UNL1       -0.0003
     28 C          25.7900   23.3684    0.4453 C.ar    1  UNL1       -0.0043
     29 C          23.4067   16.8788    1.0722 C.3     1  UNL1        0.1084
     30 C          22.0868   17.4366    1.5157 C.3     1  UNL1        0.1781
     31 O          21.1219   16.5707    2.2702 O.3     1  UNL1       -0.3777
     32 H          21.3515   15.6500    2.4712 H       1  UNL1        0.2106
     33 C          21.7318   18.8605    1.2048 C.3     1  UNL1        0.0840
     34 N          22.3331   20.0783    1.8416 N.4     1  UNL1        0.2539
     35 C          21.6861   21.2870    1.2329 C.3     1  UNL1        0.1322
     36 C          20.6849   20.8162    0.2199 C.3     1  UNL1        0.1755
     37 C          20.7132   19.3165    0.2026 C.3     1  UNL1        0.0931
     38 H          23.0552   20.0835    2.5620 H       1  UNL1        0.2035
     39 H          22.6438   20.9892    2.1792 H       1  UNL1        0.2035
     40 O          19.8093   21.6913   -0.6270 O.3     1  UNL1       -0.3500
     41 C          18.6367   22.3973   -0.0134 C.3     1  UNL1        0.1423
     42 C          17.5922   21.6140    0.7253 C.3     1  UNL1        0.0321
     43 C          17.6878   21.4537    2.2136 C.3     1  UNL1        0.0027
     44 C          24.1238   15.8779    1.9289 C.3     1  UNL1        0.0487
     45 F          21.9578   11.9575   -0.7054 F       1  UNL1       -0.2041
     46 C          22.7245   12.4571    0.4831 C.ar    1  UNL1        0.1421
     47 C          23.0408   13.9176    0.6118 C.ar    1  UNL1        0.0256
     48 C          23.8076   14.4172    1.8003 C.ar    1  UNL1       -0.0160
     49 C          24.2580   13.4561    2.8602 C.ar    1  UNL1        0.0256
     50 C          23.9417   11.9955    2.7315 C.ar    1  UNL1        0.1421
     51 F          24.3922   11.0344    3.7915 F       1  UNL1       -0.2041
     52 C          23.1750   11.4960    1.5430 C.ar    1  UNL1        0.0592
@<TRIPOS>UNITY_ATOM_ATTR
34 1
charge 1
@<TRIPOS>BOND
     1    45    46    1
     2    46    47   ar
     3    47    48   ar
     4    48    49   ar
     5    49    50   ar
     6    50    51    1
     7    50    52   ar
     8    48    44    1
     9    29    44    1
    10    29     1    1
    11     1     2   am
    12     2     3    2
    13     2     5    1
    14     5     6    1
    15     6     7    1
    16     7     8    1
    17     8     9    1
    18     9    12    1
    19    12    13   am
    20    13    14    2
    21    13    15    1
    22     9    17    1
    23    17    18    1
    24    18    19    1
    25    18    20    1
    26     9    10    1
    27    10    11    2
    28     5    21    1
    29    21    22    1
    30    22    23    1
    31    23    24   ar
    32    24    25   ar
    33    25    26   ar
    34    26    27   ar
    35    27    28   ar
    36    29    30    1
    37    30    31    1
    38    30    33    1
    39    33    34    1
    40    34    35    1
    41    35    36    1
    42    36    40    1
    43    40    41    1
    44    41    42    1
    45    42    43    1
    46    36    37    1
    47    52    46   ar
    48    10     6   am
    49    28    23   ar
    50    33    37    1
    51     1     4    1
    52    12    16    1
    53    31    32    1
    54    34    38    1
    55    34    39    1
@<TRIPOS>MOLECULE
*****
 46 50 0 0 0
SMALL
GASTEIGER

@<TRIPOS>ATOM
      1 C          23.8429   25.3410    1.6004 C.3     1  UNL1        0.1089
      2 C          24.4009   27.8645    1.3351 C.2     1  UNL1        0.2459
      3 O          24.9946   27.8780    2.7125 O.2     1  UNL1       -0.2701
      4 N          23.8250   26.5959    0.7791 N.am    1  UNL1       -0.2995
      5 H          23.4353   26.5871   -0.1250 H       1  UNL1        0.1498
      6 S          21.6657   33.5381   -0.4033 S.O2    1  UNL1        0.0590
      7 O          20.5705   33.2743    0.5870 O.2     1  UNL1       -0.1542
      8 O          20.7855   34.7437   -0.5503 O.2     1  UNL1       -0.1542
      9 N          22.0587   32.2151    0.1842 N.pl3   1  UNL1       -0.1911
     10 C          23.2521   31.3656   -0.1387 C.ar    1  UNL1        0.0843
     11 C          23.2699   30.1107    0.6827 C.ar    1  UNL1        0.0221
     12 C          24.3830   29.1195    0.5137 C.ar    1  UNL1        0.0547
     13 C          25.4783   29.3833   -0.4767 C.ar    1  UNL1        0.0058
     14 C          25.4604   30.6383   -1.2981 C.ar    1  UNL1        0.0147
     15 C          24.3473   31.6294   -1.1291 C.ar    1  UNL1        0.0747
     16 N          24.5196   32.8078   -2.0411 N.ar    1  UNL1       -0.3234
     17 C          25.7807   32.5601   -2.8147 C.ar    1  UNL1        0.0716
     18 C          26.3500   31.2472   -2.3650 C.ar    1  UNL1       -0.0035
     19 C          23.6394   34.0134   -2.1880 C.3     1  UNL1        0.1334
     20 C          22.3693   34.3384   -1.4591 C.3     1  UNL1        0.1970
     21 C          21.1362   31.6693    1.2336 C.3     1  UNL1        0.1388
     22 C          27.6077   30.6099   -2.8769 C.3     1  UNL1        0.0279
     23 C          27.6076   29.9103   -4.2038 C.3     1  UNL1        0.0051
     24 C          22.5769   24.8370    2.2277 C.3     1  UNL1        0.1839
     25 O          22.1233   23.4298    1.9750 O.3     1  UNL1       -0.3775
     26 H          21.3046   23.1039    2.3806 H       1  UNL1        0.2106
     27 C          21.7647   25.7403    3.1076 C.3     1  UNL1        0.1339
     28 N          20.3053   25.4667    3.3198 N.4     1  UNL1        0.2597
     29 H          19.9803   25.0967    4.2131 H       1  UNL1        0.2040
     30 H          19.3128   25.2806    3.4641 H       1  UNL1        0.2040
     31 C          19.3236   25.7371    2.2183 C.3     1  UNL1        0.1299
     32 C          18.8657   24.6183    1.3303 C.ar    1  UNL1        0.0356
     33 C          18.3457   23.3471    1.9333 C.ar    1  UNL1        0.0383
     34 C          17.8878   22.2281    1.0453 C.ar    1  UNL1        0.1386
     35 C          17.9499   22.3805   -0.4456 C.ar    1  UNL1        0.0369
     36 C          18.4700   23.6518   -1.0486 C.ar    1  UNL1        0.0030
     37 C          18.9278   24.7706   -0.1606 C.ar    1  UNL1        0.0016
     38 O          17.3678   20.9570    1.6483 O.3     1  UNL1       -0.4714
     39 C          17.7788   20.5620    3.0358 C.3     1  UNL1        0.2525
     40 C          25.1267   24.5898    1.7945 C.3     1  UNL1        0.0486
     41 C          26.0942   24.4517    0.6565 C.ar    1  UNL1       -0.0204
     42 C          25.8023   23.4989   -0.4646 C.ar    1  UNL1       -0.0042
     43 C          26.7697   23.3607   -1.6026 C.ar    1  UNL1       -0.0003
     44 C          28.0291   24.1754   -1.6193 C.ar    1  UNL1       -0.0000
     45 C          28.3211   25.1281   -0.4982 C.ar    1  UNL1       -0.0003
     46 C          27.3536   25.2663    0.6397 C.ar    1  UNL1       -0.0042
@<TRIPOS>UNITY_ATOM_ATTR
28 1
charge 1
@<TRIPOS>BOND
     1     6     7    2
     2     6     8    2
     3     6     9    1
     4     9    10    1
     5    10    11   ar
     6    11    12   ar
     7    12    13   ar
     8    13    14   ar
     9    14    15   ar
    10    15    16   ar
    11    16    17   ar
    12    17    18   ar
    13    18    22    1
    14    22    23    1
    15    16    19    1
    16    19    20    1
    17    12     2    1
    18     2     3    2
    19     2     4   am
    20     4     1    1
    21     1    24    1
    22    24    25    1
    23    24    27    1
    24    27    28    1
    25    28    31    1
    26    31    32    1
    27    32    33   ar
    28    33    34   ar
    29    34    38    1
    30    38    39    1
    31    34    35   ar
    32    35    36   ar
    33    36    37   ar
    34     1    40    1
    35    40    41    1
    36    41    42   ar
    37    42    43   ar
    38    43    44   ar
    39    44    45   ar
    40    45    46   ar
    41     9    21    1
    42    20     6    1
    43    37    32   ar
    44    46    41   ar
    45    15    10   ar
    46    18    14   ar
    47     4     5    1
    48    25    26    1
    49    28    29    1
    50    28    30    1
@<TRIPOS>MOLECULE
*****
 46 50 0 0 0
SMALL
GASTEIGER

@<TRIPOS>ATOM
      1 C          23.7196   25.6892    1.7053 C.3     1  UNL1        0.1089
      2 C          23.7280   28.2870    1.6649 C.2     1  UNL1        0.2459
      3 O          24.1124   28.3083    3.1146 O.2     1  UNL1       -0.2701
      4 N          23.5316   26.9774    0.9602 N.am    1  UNL1       -0.2995
      5 H          23.2793   26.9634    0.0087 H       1  UNL1        0.1498
      6 S          25.6298   32.6476   -2.8141 S.O2    1  UNL1        0.0590
      7 O          26.8087   31.7710   -3.1172 O.2     1  UNL1       -0.1542
      8 O          26.3440   33.4094   -3.8909 O.2     1  UNL1       -0.1542
      9 N          25.4402   31.4958   -1.8721 N.pl3   1  UNL1       -0.1911
     10 C          24.3428   31.2750   -0.8736 C.ar    1  UNL1        0.0843
     11 C          24.5308   29.9868   -0.1285 C.ar    1  UNL1        0.0221
     12 C          23.5400   29.5752    0.9197 C.ar    1  UNL1        0.0547
     13 C          22.3611   30.4517    1.2228 C.ar    1  UNL1        0.0058
     14 C          22.1731   31.7399    0.4777 C.ar    1  UNL1        0.0147
     15 C          23.1639   32.1515   -0.5705 C.ar    1  UNL1        0.0747
     16 N          22.7913   33.4654   -1.1910 N.ar    1  UNL1       -0.3234
     17 C          21.5247   33.9043   -0.5179 C.ar    1  UNL1        0.0716
     18 C          21.1505   32.8601    0.4920 C.ar    1  UNL1       -0.0035
     19 C          23.5055   34.2271   -2.2679 C.3     1  UNL1        0.1334
     20 C          24.7687   33.8632   -2.9902 C.3     1  UNL1        0.1970
     21 C          26.4864   30.4228   -1.9372 C.3     1  UNL1        0.1388
     22 C          19.9516   32.8942    1.3927 C.3     1  UNL1        0.0279
     23 C          18.6523   33.4512    0.8910 C.3     1  UNL1        0.0051
     24 C          22.5372   24.9956    2.3144 C.3     1  UNL1        0.1839
     25 O          22.2444   23.5664    1.9656 O.3     1  UNL1       -0.3775
     26 H          21.4798   23.1179    2.3595 H       1  UNL1        0.2106
     27 C          21.6477   25.7312    3.2723 C.3     1  UNL1        0.1339
     28 N          20.1784   25.4320    3.3121 N.4     1  UNL1        0.2597
     29 H          19.7607   25.0388    4.1554 H       1  UNL1        0.2040
     30 H          19.1793   25.2285    3.3391 H       1  UNL1        0.2040
     31 C          19.3234   25.7109    2.1115 C.3     1  UNL1        0.1299
     32 C          18.8593   24.5801    1.2422 C.ar    1  UNL1        0.0356
     33 C          18.3536   23.3133    1.8660 C.ar    1  UNL1        0.0383
     34 C          17.8895   22.1823    0.9967 C.ar    1  UNL1        0.1386
     35 C          17.9312   22.3183   -0.4966 C.ar    1  UNL1        0.0369
     36 C          18.4370   23.5853   -1.1204 C.ar    1  UNL1        0.0030
     37 C          18.9011   24.7161   -0.2511 C.ar    1  UNL1        0.0016
     38 O          17.3837   20.9155    1.6206 O.3     1  UNL1       -0.4714
     39 C          17.7765   20.5620    3.0244 C.3     1  UNL1        0.2525
     40 C          25.0900   25.0946    1.8413 C.3     1  UNL1        0.0486
     41 C          25.8702   24.7205    0.6160 C.ar    1  UNL1       -0.0204
     42 C          26.9213   25.6490    0.0838 C.ar    1  UNL1       -0.0042
     43 C          27.7016   25.2750   -1.1414 C.ar    1  UNL1       -0.0003
     44 C          27.4307   23.9727   -1.8345 C.ar    1  UNL1       -0.0000
     45 C          26.3796   23.0442   -1.3024 C.ar    1  UNL1       -0.0003
     46 C          25.5994   23.4182   -0.0771 C.ar    1  UNL1       -0.0042
@<TRIPOS>UNITY_ATOM_ATTR
28 1
charge 1
@<TRIPOS>BOND
     1     6     7    2
     2     6     8    2
     3     6     9    1
     4     9    10    1
     5    10    11   ar
     6    11    12   ar
     7    12    13   ar
     8    13    14   ar
     9    14    15   ar
    10    15    16   ar
    11    16    17   ar
    12    17    18   ar
    13    18    22    1
    14    22    23    1
    15    16    19    1
    16    19    20    1
    17    12     2    1
    18     2     3    2
    19     2     4   am
    20     4     1    1
    21     1    24    1
    22    24    25    1
    23    24    27    1
    24    27    28    1
    25    28    31    1
    26    31    32    1
    27    32    33   ar
    28    33    34   ar
    29    34    38    1
    30    38    39    1
    31    34    35   ar
    32    35    36   ar
    33    36    37   ar
    34     1    40    1
    35    40    41    1
    36    41    42   ar
    37    42    43   ar
    38    43    44   ar
    39    44    45   ar
    40    45    46   ar
    41     9    21    1
    42    20     6    1
    43    37    32   ar
    44    46    41   ar
    45    15    10   ar
    46    18    14   ar
    47     4     5    1
    48    25    26    1
    49    28    29    1
    50    28    30    1
@<TRIPOS>MOLECULE
*****
 46 50 0 0 0
SMALL
GASTEIGER

@<TRIPOS>ATOM
      1 C          23.4194   25.5809    1.3101 C.3     1  UNL1        0.1089
      2 C          23.2694   28.1717    1.1864 C.2     1  UNL1        0.2459
      3 O          23.6856   28.2645    2.6244 O.2     1  UNL1       -0.2701
      4 N          23.1363   26.8299    0.5292 N.am    1  UNL1       -0.2995
      5 H          22.8631   26.7690   -0.4147 H       1  UNL1        0.1498
      6 S          24.0082   31.8989   -4.1292 S.O2    1  UNL1        0.0590
      7 O          24.9036   30.8417   -4.7041 O.2     1  UNL1       -0.1542
      8 O          24.3927   32.4747   -5.4598 O.2     1  UNL1       -0.1542
      9 N          24.0222   30.8527   -3.0544 N.pl3   1  UNL1       -0.1911
     10 C          23.3153   30.8614   -1.7313 C.ar    1  UNL1        0.0843
     11 C          23.5985   29.6125   -0.9504 C.ar    1  UNL1        0.0221
     12 C          22.9862   29.4207    0.4054 C.ar    1  UNL1        0.0547
     13 C          22.0908   30.4779    0.9803 C.ar    1  UNL1        0.0058
     14 C          21.8076   31.7269    0.1994 C.ar    1  UNL1        0.0147
     15 C          22.4199   31.9186   -1.1564 C.ar    1  UNL1        0.0747
     16 N          22.0102   33.2281   -1.7625 N.ar    1  UNL1       -0.3234
     17 C          21.1095   33.8909   -0.7626 C.ar    1  UNL1        0.0716
     18 C          20.9870   32.9824    0.4246 C.ar    1  UNL1       -0.0035
     19 C          22.3946   33.8039   -3.0932 C.3     1  UNL1        0.1334
     20 C          23.2839   33.2123   -4.1464 C.3     1  UNL1        0.1970
     21 C          24.8529   29.6369   -3.3403 C.3     1  UNL1        0.1388
     22 C          20.1811   33.2510    1.6608 C.3     1  UNL1        0.0279
     23 C          18.6829   33.2715    1.5897 C.3     1  UNL1        0.0051
     24 C          24.7019   24.8341    1.0914 C.3     1  UNL1        0.1839
     25 O          24.9867   24.2071   -0.2412 O.3     1  UNL1       -0.3775
     26 H          25.8160   23.7242   -0.3826 H       1  UNL1        0.2106
     27 C          25.6993   24.7144    2.2052 C.3     1  UNL1        0.1339
     28 N          26.9009   25.6118    2.2356 N.4     1  UNL1        0.2597
     29 H          27.8373   25.2126    2.1722 H       1  UNL1        0.2040
     30 H          27.7179   26.2220    2.2563 H       1  UNL1        0.2040
     31 C          26.7252   27.0964    2.3591 C.3     1  UNL1        0.1299
     32 C          26.9589   27.9808    1.1703 C.ar    1  UNL1        0.0356
     33 C          27.2734   29.4341    1.3671 C.ar    1  UNL1        0.0383
     34 C          27.5070   30.3186    0.1783 C.ar    1  UNL1        0.1386
     35 C          27.4261   29.7496   -1.2073 C.ar    1  UNL1        0.0369
     36 C          27.1115   28.2961   -1.4040 C.ar    1  UNL1        0.0030
     37 C          26.8779   27.4118   -0.2152 C.ar    1  UNL1        0.0016
     38 O          27.8216   31.7720    0.3750 O.3     1  UNL1       -0.4714
     39 C          28.1124   32.6436   -0.8106 C.3     1  UNL1        0.2525
     40 C          22.4202   25.0786    2.3097 C.3     1  UNL1        0.0486
     41 C          21.0036   24.8203    1.8892 C.ar    1  UNL1       -0.0204
     42 C          20.5929   23.4496    1.4393 C.ar    1  UNL1       -0.0042
     43 C          19.1764   23.1913    1.0189 C.ar    1  UNL1       -0.0003
     44 C          18.1706   24.3037    1.0484 C.ar    1  UNL1       -0.0000
     45 C          18.5813   25.6744    1.4984 C.ar    1  UNL1       -0.0003
     46 C          19.9978   25.9327    1.9188 C.ar    1  UNL1       -0.0042
@<TRIPOS>UNITY_ATOM_ATTR
28 1
charge 1
@<TRIPOS>BOND
     1     6     7    2
     2     6     8    2
     3     6     9    1
     4     9    10    1
     5    10    11   ar
     6    11    12   ar
     7    12    13   ar
     8    13    14   ar
     9    14    15   ar
    10    15    16   ar
    11    16    17   ar
    12    17    18   ar
    13    18    22    1
    14    22    23    1
    15    16    19    1
    16    19    20    1
    17    12     2    1
    18     2     3    2
    19     2     4   am
    20     4     1    1
    21     1    24    1
    22    24    25    1
    23    24    27    1
    24    27    28    1
    25    28    31    1
    26    31    32    1
    27    32    33   ar
    28    33    34   ar
    29    34    38    1
    30    38    39    1
    31    34    35   ar
    32    35    36   ar
    33    36    37   ar
    34     1    40    1
    35    40    41    1
    36    41    42   ar
    37    42    43   ar
    38    43    44   ar
    39    44    45   ar
    40    45    46   ar
    41     9    21    1
    42    20     6    1
    43    37    32   ar
    44    46    41   ar
    45    15    10   ar
    46    18    14   ar
    47     4     5    1
    48    25    26    1
    49    28    29    1
    50    28    30    1
@<TRIPOS>MOLECULE
*****
 46 50 0 0 0
SMALL
GASTEIGER

@<TRIPOS>ATOM
      1 C          21.3803   18.1367    0.5551 C.3     1  UNL1        0.1089
      2 C          22.9230   20.1715    0.0759 C.2     1  UNL1        0.2459
      3 O          22.2115   20.9603    1.1349 O.2     1  UNL1       -0.2701
      4 N          22.5074   18.7597   -0.2140 N.am    1  UNL1       -0.2995
      5 H          22.9744   18.2420   -0.9091 H       1  UNL1        0.1498
      6 S          27.5840   24.6999   -0.6036 S.O2    1  UNL1        0.0590
      7 O          27.1672   25.2777    0.7164 O.2     1  UNL1       -0.1542
      8 O          28.5255   25.8550   -0.4328 O.2     1  UNL1       -0.1542
      9 N          26.4570   23.8019   -0.1871 N.pl3   1  UNL1       -0.1911
     10 C          25.8875   22.6183   -0.9115 C.ar    1  UNL1        0.0843
     11 C          24.7604   21.9953   -0.1424 C.ar    1  UNL1        0.0221
     12 C          24.0501   20.7945   -0.6932 C.ar    1  UNL1        0.0547
     13 C          24.4669   20.2167   -2.0132 C.ar    1  UNL1        0.0058
     14 C          25.5939   20.8396   -2.7824 C.ar    1  UNL1        0.0147
     15 C          26.3042   22.0404   -2.2315 C.ar    1  UNL1        0.0747
     16 N          27.3935   22.5034   -3.1530 N.ar    1  UNL1       -0.3234
     17 C          27.3768   21.5693   -4.3267 C.ar    1  UNL1        0.0716
     18 C          26.2878   20.5625   -4.1023 C.ar    1  UNL1       -0.0035
     19 C          28.3350   23.6586   -2.9822 C.3     1  UNL1        0.1334
     20 C          28.4198   24.6361   -1.8476 C.3     1  UNL1        0.1970
     21 C          25.8147   24.1309    1.1279 C.3     1  UNL1        0.1388
     22 C          25.9198   19.4409   -5.0277 C.3     1  UNL1        0.0279
     23 C          24.4796   19.0657   -5.2159 C.3     1  UNL1        0.0051
     24 C          21.1040   18.5704    1.9642 C.3     1  UNL1        0.1839
     25 O          22.2271   18.6640    2.9541 O.3     1  UNL1       -0.3775
     26 H          22.0484   18.9444    3.8653 H       1  UNL1        0.2106
     27 C          19.7045   18.9104    2.3835 C.3     1  UNL1        0.1339
     28 N          19.3471   20.3266    2.7250 N.4     1  UNL1        0.2597
     29 H          19.8867   20.8338    3.4264 H       1  UNL1        0.2040
     30 H          19.1041   21.2897    2.9572 H       1  UNL1        0.2040
     31 C          18.1962   20.9970    2.0349 C.3     1  UNL1        0.1299
     32 C          18.4289   22.2323    1.2165 C.ar    1  UNL1        0.0356
     33 C          19.0063   23.4591    1.8580 C.ar    1  UNL1        0.0383
     34 C          19.2390   24.6945    1.0396 C.ar    1  UNL1        0.1386
     35 C          18.8943   24.7031   -0.4202 C.ar    1  UNL1        0.0369
     36 C          18.3168   23.4762   -1.0617 C.ar    1  UNL1        0.0030
     37 C          18.0841   22.2408   -0.2433 C.ar    1  UNL1        0.0016
     38 O          19.8164   25.9213    1.6811 O.3     1  UNL1       -0.4714
     39 C          20.7699   25.7881    2.8313 C.3     1  UNL1        0.2525
     40 C          20.5296   17.0799   -0.0849 C.3     1  UNL1        0.0486
     41 C          19.4745   17.4666   -1.0786 C.ar    1  UNL1       -0.0204
     42 C          19.1521   18.9139   -1.3053 C.ar    1  UNL1       -0.0042
     43 C          18.0970   19.3005   -2.2989 C.ar    1  UNL1       -0.0003
     44 C          17.3643   18.2399   -3.0657 C.ar    1  UNL1       -0.0000
     45 C          17.6867   16.7926   -2.8390 C.ar    1  UNL1       -0.0003
     46 C          18.7417   16.4059   -1.8454 C.ar    1  UNL1       -0.0042
@<TRIPOS>UNITY_ATOM_ATTR
28 1
charge 1
@<TRIPOS>BOND
     1     6     7    2
     2     6     8    2
     3     6     9    1
     4     9    10    1
     5    10    11   ar
     6    11    12   ar
     7    12    13   ar
     8    13    14   ar
     9    14    15   ar
    10    15    16   ar
    11    16    17   ar
    12    17    18   ar
    13    18    22    1
    14    22    23    1
    15    16    19    1
    16    19    20    1
    17    12     2    1
    18     2     3    2
    19     2     4   am
    20     4     1    1
    21     1    24    1
    22    24    25    1
    23    24    27    1
    24    27    28    1
    25    28    31    1
    26    31    32    1
    27    32    33   ar
    28    33    34   ar
    29    34    38    1
    30    38    39    1
    31    34    35   ar
    32    35    36   ar
    33    36    37   ar
    34     1    40    1
    35    40    41    1
    36    41    42   ar
    37    42    43   ar
    38    43    44   ar
    39    44    45   ar
    40    45    46   ar
    41     9    21    1
    42    20     6    1
    43    37    32   ar
    44    46    41   ar
    45    15    10   ar
    46    18    14   ar
    47     4     5    1
    48    25    26    1
    49    28    29    1
    50    28    30    1
@<TRIPOS>MOLECULE
*****
 46 50 0 0 0
SMALL
GASTEIGER

@<TRIPOS>ATOM
      1 C          22.5884   25.7185    1.7227 C.3     1  UNL1        0.1089
      2 C          23.2635   28.2244    1.6010 C.2     1  UNL1        0.2459
      3 O          23.5374   28.2222    3.0757 O.2     1  UNL1       -0.2701
      4 N          22.7890   26.9725    0.9245 N.am    1  UNL1       -0.2995
      5 H          22.6093   26.9739   -0.0435 H       1  UNL1        0.1498
      6 S          27.0388   32.2482   -1.8989 S.O2    1  UNL1        0.0590
      7 O          28.1842   31.3034   -1.6860 O.2     1  UNL1       -0.1542
      8 O          28.1641   32.9179   -2.6304 O.2     1  UNL1       -0.1542
      9 N          26.4230   31.1581   -1.0727 N.pl3   1  UNL1       -0.1911
     10 C          25.0107   31.0415   -0.5809 C.ar    1  UNL1        0.0843
     11 C          24.8102   29.7876    0.2173 C.ar    1  UNL1        0.0221
     12 C          23.4642   29.4784    0.8027 C.ar    1  UNL1        0.0547
     13 C          22.3187   30.4232    0.5897 C.ar    1  UNL1        0.0058
     14 C          22.5193   31.6772   -0.2085 C.ar    1  UNL1        0.0147
     15 C          23.8653   31.9863   -0.7938 C.ar    1  UNL1        0.0747
     16 N          23.8493   33.2810   -1.5512 N.ar    1  UNL1       -0.3234
     17 C          22.4508   33.8130   -1.4452 C.ar    1  UNL1        0.0716
     18 C          21.6459   32.8424   -0.6327 C.ar    1  UNL1       -0.0035
     19 C          24.9747   33.9507   -2.2826 C.3     1  UNL1        0.1334
     20 C          26.3941   33.4910   -2.4374 C.3     1  UNL1        0.1970
     21 C          27.3410   30.0362   -0.6874 C.3     1  UNL1        0.1388
     22 C          20.1948   32.9796   -0.2786 C.3     1  UNL1        0.0279
     23 C          19.7680   32.9541    1.1592 C.3     1  UNL1        0.0051
     24 C          21.3039   25.5001    2.4661 C.3     1  UNL1        0.1839
     25 O          21.2604   25.6742    3.9553 O.3     1  UNL1       -0.3775
     26 H          20.4298   25.5330    4.4360 H       1  UNL1        0.2106
     27 C          20.0632   25.1075    1.7202 C.3     1  UNL1        0.1339
     28 N          19.2494   23.9354    2.1827 N.4     1  UNL1        0.2597
     29 H          18.6961   24.0039    3.0369 H       1  UNL1        0.2040
     30 H          18.6960   23.1384    2.4973 H       1  UNL1        0.2040
     31 C          19.2492   22.6625    1.3891 C.3     1  UNL1        0.1299
     32 C          19.2019   21.3393    2.0939 C.ar    1  UNL1        0.0356
     33 C          20.3533   20.3852    1.9760 C.ar    1  UNL1        0.0383
     34 C          20.3060   19.0619    2.6808 C.ar    1  UNL1        0.1386
     35 C          19.1073   18.6927    3.5034 C.ar    1  UNL1        0.0369
     36 C          17.9558   19.6468    3.6213 C.ar    1  UNL1        0.0030
     37 C          18.0031   20.9701    2.9165 C.ar    1  UNL1        0.0016
     38 O          21.4575   18.1078    2.5629 O.3     1  UNL1       -0.4714
     39 C          22.7273   18.5439    1.8941 C.3     1  UNL1        0.2525
     40 C          23.6722   24.6829    1.7776 C.3     1  UNL1        0.0486
     41 C          25.0292   24.9869    1.2153 C.ar    1  UNL1       -0.0204
     42 C          25.4556   24.3762   -0.0867 C.ar    1  UNL1       -0.0042
     43 C          26.8125   24.6802   -0.6490 C.ar    1  UNL1       -0.0003
     44 C          27.7431   25.5949    0.0907 C.ar    1  UNL1       -0.0000
     45 C          27.3167   26.2056    1.3927 C.ar    1  UNL1       -0.0003
     46 C          25.9598   25.9017    1.9550 C.ar    1  UNL1       -0.0042
@<TRIPOS>UNITY_ATOM_ATTR
28 1
charge 1
@<TRIPOS>BOND
     1     6     7    2
     2     6     8    2
     3     6     9    1
     4     9    10    1
     5    10    11   ar
     6    11    12   ar
     7    12    13   ar
     8    13    14   ar
     9    14    15   ar
    10    15    16   ar
    11    16    17   ar
    12    17    18   ar
    13    18    22    1
    14    22    23    1
    15    16    19    1
    16    19    20    1
    17    12     2    1
    18     2     3    2
    19     2     4   am
    20     4     1    1
    21     1    24    1
    22    24    25    1
    23    24    27    1
    24    27    28    1
    25    28    31    1
    26    31    32    1
    27    32    33   ar
    28    33    34   ar
    29    34    38    1
    30    38    39    1
    31    34    35   ar
    32    35    36   ar
    33    36    37   ar
    34     1    40    1
    35    40    41    1
    36    41    42   ar
    37    42    43   ar
    38    43    44   ar
    39    44    45   ar
    40    45    46   ar
    41     9    21    1
    42    20     6    1
    43    37    32   ar
    44    46    41   ar
    45    15    10   ar
    46    18    14   ar
    47     4     5    1
    48    25    26    1
    49    28    29    1
    50    28    30    1
@<TRIPOS>MOLECULE
*****
 46 50 0 0 0
SMALL
GASTEIGER

@<TRIPOS>ATOM
      1 C          20.0780   18.6014    1.6889 C.3     1  UNL1        0.1089
      2 C          21.5652   16.4788    1.5090 C.2     1  UNL1        0.2459
      3 O          22.7414   17.2599    2.0154 O.2     1  UNL1       -0.2701
      4 N          20.2335   17.1495    1.3458 N.am    1  UNL1       -0.2995
      5 H          19.4616   16.6368    1.0134 H       1  UNL1        0.1498
      6 S          20.3292   11.3299   -2.3191 S.O2    1  UNL1        0.0590
      7 O          19.4936   12.2209   -3.1896 O.2     1  UNL1       -0.1542
      8 O          19.8481   10.3952   -3.3890 O.2     1  UNL1       -0.1542
      9 N          20.4385   12.6611   -1.6364 N.pl3   1  UNL1       -0.1911
     10 C          21.1963   13.0141   -0.3909 C.ar    1  UNL1        0.0843
     11 C          21.0407   14.4660   -0.0478 C.ar    1  UNL1        0.0221
     12 C          21.7208   15.0268    1.1658 C.ar    1  UNL1        0.0547
     13 C          22.5564   14.1357    2.0363 C.ar    1  UNL1        0.0058
     14 C          22.7119   12.6839    1.6932 C.ar    1  UNL1        0.0147
     15 C          22.0319   12.1230    0.4796 C.ar    1  UNL1        0.0747
     16 N          22.3161   10.6589    0.3196 N.ar    1  UNL1       -0.3234
     17 C          23.2041   10.2751    1.4660 C.ar    1  UNL1        0.0716
     18 C          23.4436   11.5005    2.2972 C.ar    1  UNL1       -0.0035
     19 C          21.8349    9.7242   -0.7504 C.3     1  UNL1        0.1334
     20 C          20.9507   10.0228   -1.9247 C.3     1  UNL1        0.1970
     21 C          19.6913   13.7884   -2.2851 C.3     1  UNL1        0.1388
     22 C          24.2768   11.5722    3.5424 C.3     1  UNL1        0.0279
     23 C          25.2603   12.6903    3.7234 C.3     1  UNL1        0.0051
     24 C          19.9249   19.0215    3.1208 C.3     1  UNL1        0.1839
     25 O          21.0740   18.8715    4.0733 O.3     1  UNL1       -0.3775
     26 H          20.9751   19.1432    4.9992 H       1  UNL1        0.2106
     27 C          18.6229   19.5914    3.6002 C.3     1  UNL1        0.1339
     28 N          18.3603   21.0636    3.4832 N.4     1  UNL1        0.2597
     29 H          18.8567   21.7197    4.0861 H       1  UNL1        0.2040
     30 H          18.1817   22.0647    3.4036 H       1  UNL1        0.2040
     31 C          17.3677   21.5709    2.4795 C.3     1  UNL1        0.1299
     32 C          17.8387   22.3445    1.2838 C.ar    1  UNL1        0.0356
     33 C          18.7689   23.5076    1.4620 C.ar    1  UNL1        0.0383
     34 C          19.2400   24.2813    0.2663 C.ar    1  UNL1        0.1386
     35 C          18.7807   23.8919   -1.1075 C.ar    1  UNL1        0.0369
     36 C          17.8504   22.7287   -1.2856 C.ar    1  UNL1        0.0030
     37 C          17.3794   21.9551   -0.0900 C.ar    1  UNL1        0.0016
     38 O          20.1703   25.4444    0.4445 O.3     1  UNL1       -0.4714
     39 C          20.7070   25.7738    1.8059 C.3     1  UNL1        0.2525
     40 C          20.0754   19.6333    0.6002 C.3     1  UNL1        0.0486
     41 C          20.0924   19.2065   -0.8377 C.ar    1  UNL1       -0.0204
     42 C          18.8023   19.0156   -1.5787 C.ar    1  UNL1       -0.0042
     43 C          18.8192   18.5888   -3.0166 C.ar    1  UNL1       -0.0003
     44 C          20.1264   18.3529   -3.7135 C.ar    1  UNL1       -0.0000
     45 C          21.4165   18.5438   -2.9725 C.ar    1  UNL1       -0.0003
     46 C          21.3996   18.9706   -1.5346 C.ar    1  UNL1       -0.0042
@<TRIPOS>UNITY_ATOM_ATTR
28 1
charge 1
@<TRIPOS>BOND
     1     6     7    2
     2     6     8    2
     3     6     9    1
     4     9    10    1
     5    10    11   ar
     6    11    12   ar
     7    12    13   ar
     8    13    14   ar
     9    14    15   ar
    10    15    16   ar
    11    16    17   ar
    12    17    18   ar
    13    18    22    1
    14    22    23    1
    15    16    19    1
    16    19    20    1
    17    12     2    1
    18     2     3    2
    19     2     4   am
    20     4     1    1
    21     1    24    1
    22    24    25    1
    23    24    27    1
    24    27    28    1
    25    28    31    1
    26    31    32    1
    27    32    33   ar
    28    33    34   ar
    29    34    38    1
    30    38    39    1
    31    34    35   ar
    32    35    36   ar
    33    36    37   ar
    34     1    40    1
    35    40    41    1
    36    41    42   ar
    37    42    43   ar
    38    43    44   ar
    39    44    45   ar
    40    45    46   ar
    41     9    21    1
    42    20     6    1
    43    37    32   ar
    44    46    41   ar
    45    15    10   ar
    46    18    14   ar
    47     4     5    1
    48    25    26    1
    49    28    29    1
    50    28    30    1
@<TRIPOS>MOLECULE
*****
 46 50 0 0 0
SMALL
GASTEIGER

@<TRIPOS>ATOM
      1 C          19.5815   20.6092   -0.7161 C.3     1  UNL1        0.1089
      2 C          19.0548   18.5783   -2.2483 C.2     1  UNL1        0.2459
      3 O          19.9441   19.1502   -3.3122 O.2     1  UNL1       -0.2701
      4 N          18.8735   19.3077   -0.9502 N.am    1  UNL1       -0.2995
      5 H          18.2899   18.9323   -0.2520 H       1  UNL1        0.1498
      6 S          15.2040   14.7145   -5.8450 S.O2    1  UNL1        0.0590
      7 O          15.0838   15.8245   -6.8467 O.2     1  UNL1       -0.1542
      8 O          14.3126   14.1211   -6.8952 O.2     1  UNL1       -0.1542
      9 N          16.0420   15.8018   -5.2405 N.pl3   1  UNL1       -0.1911
     10 C          16.8105   15.7838   -3.9523 C.ar    1  UNL1        0.0843
     11 C          17.5185   17.0852   -3.7183 C.ar    1  UNL1        0.0221
     12 C          18.3467   17.2767   -2.4824 C.ar    1  UNL1        0.0547
     13 C          18.4669   16.1668   -1.4807 C.ar    1  UNL1        0.0058
     14 C          17.7589   14.8653   -1.7148 C.ar    1  UNL1        0.0147
     15 C          16.9307   14.6738   -2.9506 C.ar    1  UNL1        0.0747
     16 N          16.3121   13.3078   -2.9896 N.ar    1  UNL1       -0.3234
     17 C          16.7598   12.6076   -1.7407 C.ar    1  UNL1        0.0716
     18 C          17.6353   13.5502   -0.9693 C.ar    1  UNL1       -0.0035
     19 C          15.4207   12.7144   -4.0398 C.3     1  UNL1        0.1334
     20 C          14.9275   13.3404   -5.3106 C.3     1  UNL1        0.1970
     21 C          16.1222   17.0758   -6.0282 C.3     1  UNL1        0.1388
     22 C          18.3005   13.2609    0.3436 C.3     1  UNL1        0.0279
     23 C          19.7466   12.8639    0.3803 C.3     1  UNL1        0.0051
     24 C          20.8993   20.6278    0.0003 C.3     1  UNL1        0.1839
     25 O          21.3818   21.8907    0.6503 O.3     1  UNL1       -0.3775
     26 H          22.2340   21.9027    1.1136 H       1  UNL1        0.2106
     27 C          21.7346   19.3837    0.0666 C.3     1  UNL1        0.1339
     28 N          21.7945   18.5875    1.3364 N.4     1  UNL1        0.2597
     29 H          22.6922   18.4173    1.7898 H       1  UNL1        0.2040
     30 H          21.8352   18.0460    2.1999 H       1  UNL1        0.2040
     31 C          20.5342   18.0414    1.9395 C.3     1  UNL1        0.1299
     32 C          19.8085   18.8218    2.9950 C.ar    1  UNL1        0.0356
     33 C          20.3307   18.8472    4.4010 C.ar    1  UNL1        0.0383
     34 C          19.6050   19.6276    5.4566 C.ar    1  UNL1        0.1386
     35 C          18.3571   20.3826    5.1063 C.ar    1  UNL1        0.0369
     36 C          17.8350   20.3573    3.7003 C.ar    1  UNL1        0.0030
     37 C          18.5607   19.5769    2.6447 C.ar    1  UNL1        0.0016
     38 O          20.1272   19.6529    6.8626 O.3     1  UNL1       -0.4714
     39 C          20.7559   18.4250    7.4513 C.3     1  UNL1        0.2525
     40 C          18.9718   21.8921   -1.1983 C.3     1  UNL1        0.0486
     41 C          18.5369   22.9336   -0.2103 C.ar    1  UNL1       -0.0204
     42 C          17.4961   22.6035    0.8182 C.ar    1  UNL1       -0.0042
     43 C          17.0611   23.6450    1.8061 C.ar    1  UNL1       -0.0003
     44 C          17.6669   25.0166    1.7656 C.ar    1  UNL1       -0.0000
     45 C          18.7077   25.3467    0.7371 C.ar    1  UNL1       -0.0003
     46 C          19.1427   24.3052   -0.2508 C.ar    1  UNL1       -0.0042
@<TRIPOS>UNITY_ATOM_ATTR
28 1
charge 1
@<TRIPOS>BOND
     1     6     7    2
     2     6     8    2
     3     6     9    1
     4     9    10    1
     5    10    11   ar
     6    11    12   ar
     7    12    13   ar
     8    13    14   ar
     9    14    15   ar
    10    15    16   ar
    11    16    17   ar
    12    17    18   ar
    13    18    22    1
    14    22    23    1
    15    16    19    1
    16    19    20    1
    17    12     2    1
    18     2     3    2
    19     2     4   am
    20     4     1    1
    21     1    24    1
    22    24    25    1
    23    24    27    1
    24    27    28    1
    25    28    31    1
    26    31    32    1
    27    32    33   ar
    28    33    34   ar
    29    34    38    1
    30    38    39    1
    31    34    35   ar
    32    35    36   ar
    33    36    37   ar
    34     1    40    1
    35    40    41    1
    36    41    42   ar
    37    42    43   ar
    38    43    44   ar
    39    44    45   ar
    40    45    46   ar
    41     9    21    1
    42    20     6    1
    43    37    32   ar
    44    46    41   ar
    45    15    10   ar
    46    18    14   ar
    47     4     5    1
    48    25    26    1
    49    28    29    1
    50    28    30    1
@<TRIPOS>MOLECULE
*****
 46 50 0 0 0
SMALL
GASTEIGER

@<TRIPOS>ATOM
      1 C          22.5309   19.3902   -0.1986 C.3     1  UNL1        0.1089
      2 C          24.6374   20.8820   -0.4937 C.2     1  UNL1        0.2459
      3 O          25.4695   19.6585   -0.7399 O.2     1  UNL1       -0.2701
      4 N          23.1681   20.7478   -0.2230 N.am    1  UNL1       -0.2995
      5 H          22.6220   21.5509   -0.0614 H       1  UNL1        0.1498
      6 S          25.0209   27.0712    1.5654 S.O2    1  UNL1        0.0590
      7 O          23.8531   26.8070    2.4689 O.2     1  UNL1       -0.1542
      8 O          24.8211   28.3921    2.2474 O.2     1  UNL1       -0.1542
      9 N          24.7011   25.6327    1.2854 N.pl3   1  UNL1       -0.1911
     10 C          25.3811   24.6909    0.3364 C.ar    1  UNL1        0.0843
     11 C          24.7440   23.3332    0.3609 C.ar    1  UNL1        0.0221
     12 C          25.2746   22.2398   -0.5182 C.ar    1  UNL1        0.0547
     13 C          26.4424   22.5040   -1.4217 C.ar    1  UNL1        0.0058
     14 C          27.0796   23.8617   -1.4462 C.ar    1  UNL1        0.0147
     15 C          26.5490   24.9551   -0.5672 C.ar    1  UNL1        0.0747
     16 N          27.3252   26.2263   -0.7447 N.ar    1  UNL1       -0.3234
     17 C          28.3825   25.9341   -1.7679 C.ar    1  UNL1        0.0716
     18 C          28.2339   24.5031   -2.1923 C.ar    1  UNL1       -0.0035
     19 C          27.1254   27.5473   -0.0627 C.3     1  UNL1        0.1334
     20 C          26.0998   27.9232    0.9654 C.3     1  UNL1        0.1970
     21 C          23.5489   25.0601    2.0565 C.3     1  UNL1        0.1388
     22 C          29.0850   23.7896   -3.2006 C.3     1  UNL1        0.0279
     23 C          30.5625   23.6596   -2.9771 C.3     1  UNL1        0.0051
     24 C          22.1824   18.7019   -1.4850 C.3     1  UNL1        0.1839
     25 O          23.2475   18.4411   -2.5085 O.3     1  UNL1       -0.3775
     26 H          23.0221   17.9960   -3.3404 H       1  UNL1        0.2106
     27 C          20.7689   18.2745   -1.7479 C.3     1  UNL1        0.1339
     28 N          19.7337   19.2946   -2.1192 N.4     1  UNL1        0.2597
     29 H          19.6166   19.5708   -3.0941 H       1  UNL1        0.2040
     30 H          19.0298   19.9882   -2.3717 H       1  UNL1        0.2040
     31 C          18.8707   19.9084   -1.0568 C.3     1  UNL1        0.1299
     32 C          18.8686   21.3952   -0.8586 C.ar    1  UNL1        0.0356
     33 C          19.4217   21.9841    0.4052 C.ar    1  UNL1        0.0383
     34 C          19.4196   23.4710    0.6035 C.ar    1  UNL1        0.1386
     35 C          18.8645   24.3689   -0.4622 C.ar    1  UNL1        0.0369
     36 C          18.3115   23.7800   -1.7261 C.ar    1  UNL1        0.0030
     37 C          18.3136   22.2932   -1.9243 C.ar    1  UNL1        0.0016
     38 O          19.9726   24.0599    1.8673 O.3     1  UNL1       -0.4714
     39 C          19.3059   25.2475    2.4958 C.3     1  UNL1        0.2525
     40 C          22.2422   18.7207    1.1123 C.3     1  UNL1        0.0486
     41 C          22.7921   17.3536    1.3935 C.ar    1  UNL1       -0.0204
     42 C          21.8590   16.1956    1.5890 C.ar    1  UNL1       -0.0042
     43 C          22.4087   14.8286    1.8701 C.ar    1  UNL1       -0.0003
     44 C          23.8916   14.6197    1.9557 C.ar    1  UNL1       -0.0000
     45 C          24.8247   15.7777    1.7602 C.ar    1  UNL1       -0.0003
     46 C          24.2750   17.1447    1.4791 C.ar    1  UNL1       -0.0042
@<TRIPOS>UNITY_ATOM_ATTR
28 1
charge 1
@<TRIPOS>BOND
     1     6     7    2
     2     6     8    2
     3     6     9    1
     4     9    10    1
     5    10    11   ar
     6    11    12   ar
     7    12    13   ar
     8    13    14   ar
     9    14    15   ar
    10    15    16   ar
    11    16    17   ar
    12    17    18   ar
    13    18    22    1
    14    22    23    1
    15    16    19    1
    16    19    20    1
    17    12     2    1
    18     2     3    2
    19     2     4   am
    20     4     1    1
    21     1    24    1
    22    24    25    1
    23    24    27    1
    24    27    28    1
    25    28    31    1
    26    31    32    1
    27    32    33   ar
    28    33    34   ar
    29    34    38    1
    30    38    39    1
    31    34    35   ar
    32    35    36   ar
    33    36    37   ar
    34     1    40    1
    35    40    41    1
    36    41    42   ar
    37    42    43   ar
    38    43    44   ar
    39    44    45   ar
    40    45    46   ar
    41     9    21    1
    42    20     6    1
    43    37    32   ar
    44    46    41   ar
    45    15    10   ar
    46    18    14   ar
    47     4     5    1
    48    25    26    1
    49    28    29    1
    50    28    30    1
@<TRIPOS>MOLECULE
*****
 46 50 0 0 0
SMALL
GASTEIGER

@<TRIPOS>ATOM
      1 C          21.1394   18.3798    0.7346 C.3     1  UNL1        0.1089
      2 C          19.9752   17.0033   -1.1362 C.2     1  UNL1        0.2459
      3 O          20.9899   17.4916   -2.1270 O.2     1  UNL1       -0.2701
      4 N          20.0499   17.4474    0.2946 N.am    1  UNL1       -0.2995
      5 H          19.3839   17.1268    0.9450 H       1  UNL1        0.1498
      6 S          16.7690   11.3263   -0.7055 S.O2    1  UNL1        0.0590
      7 O          17.7098   10.9172    0.3888 O.2     1  UNL1       -0.1542
      8 O          16.2813    9.9553   -0.3414 O.2     1  UNL1       -0.1542
      9 N          17.6752   12.5153   -0.5827 N.pl3   1  UNL1       -0.1911
     10 C          17.6476   13.7969   -1.3617 C.ar    1  UNL1        0.0843
     11 C          18.7370   14.7293   -0.9218 C.ar    1  UNL1        0.0221
     12 C          18.8857   16.0708   -1.5761 C.ar    1  UNL1        0.0547
     13 C          17.9448   16.4799   -2.6704 C.ar    1  UNL1        0.0058
     14 C          16.8554   15.5475   -3.1103 C.ar    1  UNL1        0.0147
     15 C          16.7067   14.2060   -2.4560 C.ar    1  UNL1        0.0747
     16 N          15.5612   13.4345   -3.0415 N.ar    1  UNL1       -0.3234
     17 C          14.9617   14.3110   -4.1010 C.ar    1  UNL1        0.0716
     18 C          15.7449   15.5897   -4.1426 C.ar    1  UNL1       -0.0035
     19 C          15.0736   12.0636   -2.6774 C.3     1  UNL1        0.1334
     20 C          15.6111   11.1253   -1.6377 C.3     1  UNL1        0.1970
     21 C          18.7515   12.4086    0.4566 C.3     1  UNL1        0.1388
     22 C          15.4895   16.7507   -5.0574 C.3     1  UNL1        0.0279
     23 C          16.5908   17.2733   -5.9314 C.3     1  UNL1        0.0051
     24 C          22.3146   17.8510    1.5023 C.3     1  UNL1        0.1839
     25 O          22.9313   18.6765    2.5923 O.3     1  UNL1       -0.3775
     26 H          23.6913   18.3346    3.0887 H       1  UNL1        0.2106
     27 C          22.8731   16.4967    1.1799 C.3     1  UNL1        0.1339
     28 N          22.7091   15.3669    2.1528 N.4     1  UNL1        0.2597
     29 H          21.8587   15.2940    2.7111 H       1  UNL1        0.2040
     30 H          22.5977   14.5986    2.8143 H       1  UNL1        0.2040
     31 C          23.7959   14.3441    2.3045 C.3     1  UNL1        0.1299
     32 C          23.4482   12.9249    2.6433 C.ar    1  UNL1        0.0356
     33 C          23.2845   11.9113    1.5498 C.ar    1  UNL1        0.0383
     34 C          22.9367   10.4920    1.8886 C.ar    1  UNL1        0.1386
     35 C          22.7526   10.0863    3.3209 C.ar    1  UNL1        0.0369
     36 C          22.9163   11.1000    4.4144 C.ar    1  UNL1        0.0030
     37 C          23.2641   12.5192    4.0756 C.ar    1  UNL1        0.0016
     38 O          22.7731    9.4784    0.7950 O.3     1  UNL1       -0.4714
     39 C          23.9815    8.9124    0.1100 C.3     1  UNL1        0.2525
     40 C          21.0537   19.8411    0.4070 C.3     1  UNL1        0.0486
     41 C          19.7441   20.5620    0.5313 C.ar    1  UNL1       -0.0204
     42 C          19.1549   21.2575   -0.6600 C.ar    1  UNL1       -0.0042
     43 C          17.8454   21.9784   -0.5358 C.ar    1  UNL1       -0.0003
     44 C          17.1251   22.0038    0.7797 C.ar    1  UNL1       -0.0000
     45 C          17.7144   21.3083    1.9710 C.ar    1  UNL1       -0.0003
     46 C          19.0238   20.5874    1.8467 C.ar    1  UNL1       -0.0042
@<TRIPOS>UNITY_ATOM_ATTR
28 1
charge 1
@<TRIPOS>BOND
     1     6     7    2
     2     6     8    2
     3     6     9    1
     4     9    10    1
     5    10    11   ar
     6    11    12   ar
     7    12    13   ar
     8    13    14   ar
     9    14    15   ar
    10    15    16   ar
    11    16    17   ar
    12    17    18   ar
    13    18    22    1
    14    22    23    1
    15    16    19    1
    16    19    20    1
    17    12     2    1
    18     2     3    2
    19     2     4   am
    20     4     1    1
    21     1    24    1
    22    24    25    1
    23    24    27    1
    24    27    28    1
    25    28    31    1
    26    31    32    1
    27    32    33   ar
    28    33    34   ar
    29    34    38    1
    30    38    39    1
    31    34    35   ar
    32    35    36   ar
    33    36    37   ar
    34     1    40    1
    35    40    41    1
    36    41    42   ar
    37    42    43   ar
    38    43    44   ar
    39    44    45   ar
    40    45    46   ar
    41     9    21    1
    42    20     6    1
    43    37    32   ar
    44    46    41   ar
    45    15    10   ar
    46    18    14   ar
    47     4     5    1
    48    25    26    1
    49    28    29    1
    50    28    30    1
@<TRIPOS>MOLECULE
*****
 45 47 0 0 0
SMALL
GASTEIGER

@<TRIPOS>ATOM
      1 S          24.0171   25.0959    1.5228 S.O2    1  UNL1       -0.0041
      2 O          24.0663   23.6170    1.2771 O.2     1  UNL1       -0.1728
      3 O          25.3692   24.9830    0.8831 O.2     1  UNL1       -0.1728
      4 C          24.4375   26.5356    1.5463 C.3     1  UNL1        0.1540
      5 C          23.5229   27.5746    2.1241 C.3     1  UNL1        0.0606
      6 C          22.1879   27.1740    2.6785 C.3     1  UNL1        0.1632
      7 O          21.2733   28.2130    3.2563 O.3     1  UNL1       -0.3788
      8 C          21.7676   25.7343    2.6550 C.3     1  UNL1        0.1039
      9 C          22.6822   24.6953    2.0771 C.3     1  UNL1        0.2077
     10 H          20.4100   27.9539    3.6148 H       1  UNL1        0.2106
     11 N          20.4326   25.3336    3.2094 N.4     1  UNL1        0.2567
     12 H          20.3491   25.0553    4.1871 H       1  UNL1        0.2038
     13 H          19.5248   25.0611    3.5864 H       1  UNL1        0.2038
     14 C          19.2204   25.3421    2.3259 C.3     1  UNL1        0.1296
     15 C          19.0945   24.3415    1.2155 C.ar    1  UNL1        0.0322
     16 C          19.3520   22.8882    1.4828 C.ar    1  UNL1       -0.0029
     17 C          19.2261   21.8876    0.3724 C.ar    1  UNL1       -0.0229
     18 C          18.8428   22.3404   -1.0053 C.ar    1  UNL1       -0.0043
     19 C          18.5853   23.7937   -1.2726 C.ar    1  UNL1       -0.0004
     20 C          18.7112   24.7943   -0.1622 C.ar    1  UNL1        0.0014
     21 C          19.4836   20.4342    0.6397 C.3     1  UNL1        0.0189
     22 C          18.7166   20.5347    1.9249 C.3     1  UNL1        0.0044
     23 C          20.2505   20.3336   -0.6454 C.3     1  UNL1        0.0044
     24 C          19.7410   18.9809    0.9070 C.3     1  UNL1        0.0044
     25 C          23.9433   29.0144    2.1476 C.3     1  UNL1        0.0309
     26 C          23.6888   29.8895    0.9562 C.ar    1  UNL1       -0.0167
     27 C          22.3159   30.4416    0.7106 C.ar    1  UNL1        0.0341
     28 C          22.0614   31.3167   -0.4808 C.ar    1  UNL1        0.1535
     29 C          23.1800   31.6397   -1.4267 C.ar    1  UNL1        0.1037
     30 N          22.9256   32.5148   -2.6181 N.pl3   1  UNL1       -0.3529
     31 C          24.5529   31.0876   -1.1811 C.ar    1  UNL1        0.1556
     32 F          25.6714   31.4106   -2.1269 F       1  UNL1       -0.2028
     33 C          24.8073   30.2125    0.0103 C.ar    1  UNL1        0.0268
     34 H          22.0245   32.8771   -2.7793 H       1  UNL1        0.1425
     35 H          23.6597   32.7268   -3.2389 H       1  UNL1        0.1425
     36 O          20.6886   31.8687   -0.7264 O.3     1  UNL1       -0.4665
     37 C          20.1765   33.0046    0.1089 C.3     1  UNL1        0.2891
     38 C          18.8584   32.8820    0.8143 C.3     1  UNL1        0.4366
     39 F          17.5403   32.7594    1.5198 F       1  UNL1       -0.1663
     40 F          18.5660   34.3231    0.5183 F       1  UNL1       -0.1663
     41 F          19.1509   31.4409    1.1103 F       1  UNL1       -0.1663
     42 C          20.9824   34.2630    0.2386 C.3     1  UNL1        0.1944
     43 O          21.6918   34.8260   -0.9571 O.3     1  UNL1       -0.3496
     44 C          22.8733   35.7312   -0.7708 C.3     1  UNL1        0.1424
     45 C          22.6636   37.1822   -0.4536 C.3     1  UNL1        0.0346
@<TRIPOS>UNITY_ATOM_ATTR
11 1
charge 1
@<TRIPOS>BOND
     1     1     2    2
     2     1     3    2
     3     1     4    1
     4     4     5    1
     5     5    25    1
     6    25    26    1
     7    26    27   ar
     8    27    28   ar
     9    28    36    1
    10    36    37    1
    11    37    42    1
    12    42    43    1
    13    43    44    1
    14    44    45    1
    15    37    38    1
    16    38    39    1
    17    38    40    1
    18    38    41    1
    19    28    29   ar
    20    29    30    1
    21    29    31   ar
    22    31    32    1
    23    31    33   ar
    24     5     6    1
    25     6     7    1
    26     6     8    1
    27     8    11    1
    28    11    14    1
    29    14    15    1
    30    15    16   ar
    31    16    17   ar
    32    17    18   ar
    33    18    19   ar
    34    19    20   ar
    35    17    21    1
    36    21    22    1
    37    21    23    1
    38    21    24    1
    39     8     9    1
    40     9     1    1
    41    33    26   ar
    42    20    15   ar
    43    30    34    1
    44    30    35    1
    45     7    10    1
    46    11    12    1
    47    11    13    1
@<TRIPOS>MOLECULE
*****
 45 47 0 0 0
SMALL
GASTEIGER

@<TRIPOS>ATOM
      1 S          23.6842   25.0089    1.6913 S.O2    1  UNL1       -0.0041
      2 O          25.1745   24.8480    1.6342 O.2     1  UNL1       -0.1728
      3 O          23.7751   23.5732    1.2662 O.2     1  UNL1       -0.1728
      4 C          22.2255   24.6712    1.6009 C.3     1  UNL1        0.1540
      5 C          21.1935   25.7132    1.9157 C.3     1  UNL1        0.0606
      6 C          21.6202   27.0929    2.3210 C.3     1  UNL1        0.1632
      7 O          20.5882   28.1350    2.6358 O.3     1  UNL1       -0.3788
      8 C          23.0788   27.4306    2.4115 C.3     1  UNL1        0.1039
      9 C          24.1108   26.3886    2.0967 C.3     1  UNL1        0.2077
     10 H          20.8641   29.0272    2.8979 H       1  UNL1        0.2106
     11 N          23.5056   28.8104    2.8168 N.4     1  UNL1        0.2567
     12 H          23.1944   29.1996    3.7068 H       1  UNL1        0.2038
     13 H          23.7957   29.7486    3.0924 H       1  UNL1        0.2038
     14 C          24.3899   29.6177    1.9134 C.3     1  UNL1        0.1296
     15 C          23.7897   30.4167    0.7946 C.ar    1  UNL1        0.0322
     16 C          22.5425   31.2162    1.0291 C.ar    1  UNL1       -0.0029
     17 C          21.9424   32.0152   -0.0896 C.ar    1  UNL1       -0.0229
     18 C          22.5896   32.0146   -1.4428 C.ar    1  UNL1       -0.0043
     19 C          23.8368   31.2150   -1.6773 C.ar    1  UNL1       -0.0004
     20 C          24.4369   30.4161   -0.5586 C.ar    1  UNL1        0.0014
     21 C          20.6950   32.8147    0.1449 C.3     1  UNL1        0.0189
     22 C          20.5291   32.9898   -1.3356 C.3     1  UNL1        0.0044
     23 C          20.8610   32.6397    1.6253 C.3     1  UNL1        0.0044
     24 C          19.4478   33.6143    0.3793 C.3     1  UNL1        0.0044
     25 C          19.7348   25.3755    1.8252 C.3     1  UNL1        0.0309
     26 C          19.2706   24.3005    0.8877 C.ar    1  UNL1       -0.0167
     27 C          19.2047   22.8761    1.3536 C.ar    1  UNL1        0.0341
     28 C          18.7405   21.8011    0.4161 C.ar    1  UNL1        0.1535
     29 C          18.3423   22.1504   -0.9873 C.ar    1  UNL1        0.1037
     30 N          17.8782   21.0754   -1.9248 N.pl3   1  UNL1       -0.3529
     31 C          18.4083   23.5747   -1.4532 C.ar    1  UNL1        0.1556
     32 F          18.0101   23.9240   -2.8566 F       1  UNL1       -0.2028
     33 C          18.8725   24.6497   -0.5157 C.ar    1  UNL1        0.0268
     34 H          17.8349   20.1406   -1.6190 H       1  UNL1        0.1425
     35 H          17.6168   21.3047   -2.8459 H       1  UNL1        0.1425
     36 O          18.6746   20.3769    0.8820 O.3     1  UNL1       -0.4665
     37 C          19.9380   19.5923    1.0773 C.3     1  UNL1        0.2891
     38 C          21.1762   19.9628    0.3159 C.3     1  UNL1        0.4366
     39 F          22.4144   20.3334   -0.4454 F       1  UNL1       -0.1663
     40 F          20.6282   19.2852   -0.9049 F       1  UNL1       -0.1663
     41 F          21.7241   20.6405    1.5368 F       1  UNL1       -0.1663
     42 C          19.9634   18.4373    2.0339 C.3     1  UNL1        0.1944
     43 O          20.5991   18.5949    3.3833 O.3     1  UNL1       -0.3496
     44 C          19.7810   19.0713    4.5468 C.3     1  UNL1        0.1424
     45 C          18.5070   19.8264    4.3086 C.3     1  UNL1        0.0346
@<TRIPOS>UNITY_ATOM_ATTR
11 1
charge 1
@<TRIPOS>BOND
     1     1     2    2
     2     1     3    2
     3     1     4    1
     4     4     5    1
     5     5    25    1
     6    25    26    1
     7    26    27   ar
     8    27    28   ar
     9    28    36    1
    10    36    37    1
    11    37    42    1
    12    42    43    1
    13    43    44    1
    14    44    45    1
    15    37    38    1
    16    38    39    1
    17    38    40    1
    18    38    41    1
    19    28    29   ar
    20    29    30    1
    21    29    31   ar
    22    31    32    1
    23    31    33   ar
    24     5     6    1
    25     6     7    1
    26     6     8    1
    27     8    11    1
    28    11    14    1
    29    14    15    1
    30    15    16   ar
    31    16    17   ar
    32    17    18   ar
    33    18    19   ar
    34    19    20   ar
    35    17    21    1
    36    21    22    1
    37    21    23    1
    38    21    24    1
    39     8     9    1
    40     9     1    1
    41    33    26   ar
    42    20    15   ar
    43    30    34    1
    44    30    35    1
    45     7    10    1
    46    11    12    1
    47    11    13    1
@<TRIPOS>MOLECULE
*****
 45 47 0 0 0
SMALL
GASTEIGER

@<TRIPOS>ATOM
      1 S          23.6033   25.0564    1.7409 S.O2    1  UNL1       -0.0041
      2 O          25.0718   24.7681    1.6393 O.2     1  UNL1       -0.1728
      3 O          23.5575   23.6221    1.3042 O.2     1  UNL1       -0.1728
      4 C          22.1189   24.8466    1.6909 C.3     1  UNL1        0.1540
      5 C          21.1902   25.9709    2.0422 C.3     1  UNL1        0.0606
      6 C          21.7459   27.3051    2.4437 C.3     1  UNL1        0.1632
      7 O          20.8173   28.4294    2.7951 O.3     1  UNL1       -0.3788
      8 C          23.2303   27.5149    2.4938 C.3     1  UNL1        0.1039
      9 C          24.1590   26.3905    2.1424 C.3     1  UNL1        0.2077
     10 H          21.1767   29.2922    3.0547 H       1  UNL1        0.2106
     11 N          23.7861   28.8491    2.8953 N.4     1  UNL1        0.2567
     12 H          23.6125   29.2128    3.8323 H       1  UNL1        0.2038
     13 H          24.1640   29.7563    3.1683 H       1  UNL1        0.2038
     14 C          24.5972   29.6482    1.9189 C.3     1  UNL1        0.1296
     15 C          23.9406   30.2444    0.7091 C.ar    1  UNL1        0.0322
     16 C          22.7551   31.1495    0.8686 C.ar    1  UNL1       -0.0029
     17 C          22.0985   31.7456   -0.3411 C.ar    1  UNL1       -0.0229
     18 C          22.6274   31.4366   -1.7104 C.ar    1  UNL1       -0.0043
     19 C          23.8128   30.5315   -1.8699 C.ar    1  UNL1       -0.0004
     20 C          24.4694   29.9354   -0.6601 C.ar    1  UNL1        0.0014
     21 C          20.9131   32.6508   -0.1816 C.3     1  UNL1        0.0189
     22 C          21.2125   33.2771   -1.5113 C.3     1  UNL1        0.0044
     23 C          20.6136   32.0244    1.1480 C.3     1  UNL1        0.0044
     24 C          19.7276   33.5559   -0.0222 C.3     1  UNL1        0.0044
     25 C          19.7058   25.7611    1.9921 C.3     1  UNL1        0.0309
     26 C          19.1368   24.6097    1.2172 C.ar    1  UNL1       -0.0167
     27 C          18.7575   23.3431    1.9258 C.ar    1  UNL1        0.0341
     28 C          18.1886   22.1917    1.1508 C.ar    1  UNL1        0.1535
     29 C          17.9990   22.3068   -0.3327 C.ar    1  UNL1        0.1037
     30 N          17.4301   21.1554   -1.1077 N.pl3   1  UNL1       -0.3529
     31 C          18.3783   23.5733   -1.0413 C.ar    1  UNL1        0.1556
     32 F          18.1887   23.6885   -2.5248 F       1  UNL1       -0.2028
     33 C          18.9472   24.7247   -0.2663 C.ar    1  UNL1        0.0268
     34 H          17.1811   20.3242   -0.6427 H       1  UNL1        0.1425
     35 H          17.3056   21.2310   -2.0814 H       1  UNL1        0.1425
     36 O          17.8093   20.9252    1.8593 O.3     1  UNL1       -0.4665
     37 C          18.8763   19.9968    2.3589 C.3     1  UNL1        0.2891
     38 C          19.0187   19.7403    3.8299 C.3     1  UNL1        0.4366
     39 F          19.1611   19.4838    5.3010 F       1  UNL1       -0.1663
     40 F          20.5106   19.7033    3.6790 F       1  UNL1       -0.1663
     41 F          17.5268   19.7773    3.9808 F       1  UNL1       -0.1663
     42 C          19.8009   19.3250    1.3875 C.3     1  UNL1        0.1944
     43 O          20.1438   17.8748    1.5588 O.3     1  UNL1       -0.3496
     44 C          21.5704   17.4237    1.4517 C.3     1  UNL1        0.1424
     45 C          21.8977   15.9600    1.4715 C.3     1  UNL1        0.0346
@<TRIPOS>UNITY_ATOM_ATTR
11 1
charge 1
@<TRIPOS>BOND
     1     1     2    2
     2     1     3    2
     3     1     4    1
     4     4     5    1
     5     5    25    1
     6    25    26    1
     7    26    27   ar
     8    27    28   ar
     9    28    36    1
    10    36    37    1
    11    37    42    1
    12    42    43    1
    13    43    44    1
    14    44    45    1
    15    37    38    1
    16    38    39    1
    17    38    40    1
    18    38    41    1
    19    28    29   ar
    20    29    30    1
    21    29    31   ar
    22    31    32    1
    23    31    33   ar
    24     5     6    1
    25     6     7    1
    26     6     8    1
    27     8    11    1
    28    11    14    1
    29    14    15    1
    30    15    16   ar
    31    16    17   ar
    32    17    18   ar
    33    18    19   ar
    34    19    20   ar
    35    17    21    1
    36    21    22    1
    37    21    23    1
    38    21    24    1
    39     8     9    1
    40     9     1    1
    41    33    26   ar
    42    20    15   ar
    43    30    34    1
    44    30    35    1
    45     7    10    1
    46    11    12    1
    47    11    13    1
@<TRIPOS>MOLECULE
*****
 45 47 0 0 0
SMALL
GASTEIGER

@<TRIPOS>ATOM
      1 S          25.3583   17.3939    0.3152 S.O2    1  UNL1       -0.0041
      2 O          25.6398   16.1139    1.0449 O.2     1  UNL1       -0.1728
      3 O          26.4951   16.8680   -0.5103 O.2     1  UNL1       -0.1728
      4 C          25.4717   18.4912   -0.7012 C.3     1  UNL1        0.1540
      5 C          24.5461   19.6699   -0.6387 C.3     1  UNL1        0.0606
      6 C          23.5071   19.7513    0.4401 C.3     1  UNL1        0.1632
      7 O          22.5815   20.9300    0.5026 O.3     1  UNL1       -0.3788
      8 C          23.3938   18.6540    1.4565 C.3     1  UNL1        0.1039
      9 C          24.3194   17.4753    1.3940 C.3     1  UNL1        0.2077
     10 H          21.9096   20.9826    1.2003 H       1  UNL1        0.2106
     11 N          22.3548   18.7353    2.5354 N.4     1  UNL1        0.2567
     12 H          22.5993   19.1109    3.4516 H       1  UNL1        0.2038
     13 H          21.6483   18.7906    3.2690 H       1  UNL1        0.2038
     14 C          20.9562   18.2642    2.2668 C.3     1  UNL1        0.1296
     15 C          19.8197   19.2431    2.2791 C.ar    1  UNL1        0.0322
     16 C          19.5370   20.0794    1.0663 C.ar    1  UNL1       -0.0029
     17 C          18.4005   21.0582    1.0786 C.ar    1  UNL1       -0.0229
     18 C          17.5468   21.2009    2.3037 C.ar    1  UNL1       -0.0043
     19 C          17.8294   20.3647    3.5164 C.ar    1  UNL1       -0.0004
     20 C          18.9659   19.3858    3.5041 C.ar    1  UNL1        0.0014
     21 C          18.1178   21.8945   -0.1341 C.3     1  UNL1        0.0189
     22 C          17.0789   22.6567    0.6337 C.3     1  UNL1        0.0044
     23 C          19.1567   21.1323   -0.9020 C.3     1  UNL1        0.0044
     24 C          17.8350   22.7308   -1.3468 C.3     1  UNL1        0.0044
     25 C          24.6594   20.7673   -1.6551 C.3     1  UNL1        0.0309
     26 C          25.5477   21.9465   -1.3897 C.ar    1  UNL1       -0.0167
     27 C          25.4664   22.6662   -0.0761 C.ar    1  UNL1        0.0341
     28 C          26.3546   23.8454    0.1893 C.ar    1  UNL1        0.1535
     29 C          27.3243   24.3049   -0.8589 C.ar    1  UNL1        0.1037
     30 N          28.2126   25.4841   -0.5935 N.pl3   1  UNL1       -0.3529
     31 C          27.4056   23.5852   -2.1725 C.ar    1  UNL1        0.1556
     32 F          28.3752   24.0448   -3.2207 F       1  UNL1       -0.2028
     33 C          26.5173   22.4060   -2.4378 C.ar    1  UNL1        0.0268
     34 H          28.1592   25.9565    0.2686 H       1  UNL1        0.1425
     35 H          28.8489   25.7857   -1.2815 H       1  UNL1        0.1425
     36 O          26.2733   24.5651    1.5028 O.3     1  UNL1       -0.4665
     37 C          25.4482   25.8117    1.6252 C.3     1  UNL1        0.2891
     38 C          26.1115   27.1242    1.9207 C.3     1  UNL1        0.4366
     39 F          26.7748   28.4367    2.2163 F       1  UNL1       -0.1663
     40 F          26.6607   26.5592    3.1971 F       1  UNL1       -0.1663
     41 F          25.5622   27.6892    0.6444 F       1  UNL1       -0.1663
     42 C          23.9597   25.7459    1.4520 C.3     1  UNL1        0.1944
     43 O          23.0995   25.2045    2.5551 O.3     1  UNL1       -0.3496
     44 C          21.9135   25.9879    3.0347 C.3     1  UNL1        0.1424
     45 C          20.5322   25.4210    2.8908 C.3     1  UNL1        0.0346
@<TRIPOS>UNITY_ATOM_ATTR
11 1
charge 1
@<TRIPOS>BOND
     1     1     2    2
     2     1     3    2
     3     1     4    1
     4     4     5    1
     5     5    25    1
     6    25    26    1
     7    26    27   ar
     8    27    28   ar
     9    28    36    1
    10    36    37    1
    11    37    42    1
    12    42    43    1
    13    43    44    1
    14    44    45    1
    15    37    38    1
    16    38    39    1
    17    38    40    1
    18    38    41    1
    19    28    29   ar
    20    29    30    1
    21    29    31   ar
    22    31    32    1
    23    31    33   ar
    24     5     6    1
    25     6     7    1
    26     6     8    1
    27     8    11    1
    28    11    14    1
    29    14    15    1
    30    15    16   ar
    31    16    17   ar
    32    17    18   ar
    33    18    19   ar
    34    19    20   ar
    35    17    21    1
    36    21    22    1
    37    21    23    1
    38    21    24    1
    39     8     9    1
    40     9     1    1
    41    33    26   ar
    42    20    15   ar
    43    30    34    1
    44    30    35    1
    45     7    10    1
    46    11    12    1
    47    11    13    1
@<TRIPOS>MOLECULE
*****
 45 47 0 0 0
SMALL
GASTEIGER

@<TRIPOS>ATOM
      1 S          22.4187   28.3501    1.9124 S.O2    1  UNL1       -0.0041
      2 O          21.6249   29.6224    1.9471 O.2     1  UNL1       -0.1728
      3 O          23.5118   29.3461    1.6609 O.2     1  UNL1       -0.1728
      4 C          23.5921   27.4237    1.7904 C.3     1  UNL1        0.1540
      5 C          23.3968   25.9432    1.9319 C.3     1  UNL1        0.0606
      6 C          22.0281   25.3891    2.1955 C.3     1  UNL1        0.1632
      7 O          21.8328   23.9086    2.3371 O.3     1  UNL1       -0.3788
      8 C          20.8547   26.3155    2.3175 C.3     1  UNL1        0.1039
      9 C          21.0500   27.7959    2.1760 C.3     1  UNL1        0.2077
     10 H          20.9477   23.5503    2.5075 H       1  UNL1        0.2106
     11 N          19.4859   25.7613    2.5811 N.4     1  UNL1        0.2567
     12 H          19.1736   25.6083    3.5400 H       1  UNL1        0.2038
     13 H          18.5552   25.3845    2.7604 H       1  UNL1        0.2038
     14 C          18.5764   25.4323    1.4346 C.3     1  UNL1        0.1296
     15 C          18.5571   24.0438    0.8672 C.ar    1  UNL1        0.0322
     16 C          18.6739   22.8590    1.7796 C.ar    1  UNL1       -0.0029
     17 C          18.6546   21.4707    1.2122 C.ar    1  UNL1       -0.0229
     18 C          18.5185   21.2671   -0.2677 C.ar    1  UNL1       -0.0043
     19 C          18.4018   22.4519   -1.1802 C.ar    1  UNL1       -0.0004
     20 C          18.4211   23.8403   -0.6127 C.ar    1  UNL1        0.0014
     21 C          18.7714   20.2858    2.1246 C.3     1  UNL1        0.0189
     22 C          17.7715   20.9045    3.0559 C.3     1  UNL1        0.0044
     23 C          19.7713   19.6671    1.1932 C.3     1  UNL1        0.0044
     24 C          18.8881   19.1010    3.0370 C.3     1  UNL1        0.0044
     25 C          24.5703   25.0169    1.8099 C.3     1  UNL1        0.0309
     26 C          25.5920   25.2384    0.7341 C.ar    1  UNL1       -0.0167
     27 C          26.1030   26.6215    0.4584 C.ar    1  UNL1        0.0341
     28 C          27.1246   26.8429   -0.6173 C.ar    1  UNL1        0.1535
     29 C          27.6352   25.6813   -1.4174 C.ar    1  UNL1        0.1037
     30 N          28.6568   25.9027   -2.4931 N.pl3   1  UNL1       -0.3529
     31 C          27.1241   24.2983   -1.1416 C.ar    1  UNL1        0.1556
     32 F          27.6347   23.1366   -1.9417 F       1  UNL1       -0.2028
     33 C          26.1025   24.0768   -0.0659 C.ar    1  UNL1        0.0268
     34 H          28.9922   26.8105   -2.6741 H       1  UNL1        0.1425
     35 H          28.9919   25.1404   -3.0182 H       1  UNL1        0.1425
     36 O          27.6356   28.2259   -0.8931 O.3     1  UNL1       -0.4665
     37 C          26.6706   29.3424   -1.1617 C.3     1  UNL1        0.2891
     38 C          25.8038   29.3065   -2.3854 C.3     1  UNL1        0.4366
     39 F          24.9370   29.2705   -3.6091 F       1  UNL1       -0.1663
     40 F          27.0271   29.3395   -3.2528 F       1  UNL1       -0.1663
     41 F          24.5806   29.2734   -1.5180 F       1  UNL1       -0.1663
     42 C          26.5722   30.4948   -0.2066 C.3     1  UNL1        0.1944
     43 O          27.5584   30.6247    0.9161 O.3     1  UNL1       -0.3496
     44 C          27.3759   29.8235    2.1711 C.3     1  UNL1        0.1424
     45 C          28.3869   28.7823    2.5499 C.3     1  UNL1        0.0346
@<TRIPOS>UNITY_ATOM_ATTR
11 1
charge 1
@<TRIPOS>BOND
     1     1     2    2
     2     1     3    2
     3     1     4    1
     4     4     5    1
     5     5    25    1
     6    25    26    1
     7    26    27   ar
     8    27    28   ar
     9    28    36    1
    10    36    37    1
    11    37    42    1
    12    42    43    1
    13    43    44    1
    14    44    45    1
    15    37    38    1
    16    38    39    1
    17    38    40    1
    18    38    41    1
    19    28    29   ar
    20    29    30    1
    21    29    31   ar
    22    31    32    1
    23    31    33   ar
    24     5     6    1
    25     6     7    1
    26     6     8    1
    27     8    11    1
    28    11    14    1
    29    14    15    1
    30    15    16   ar
    31    16    17   ar
    32    17    18   ar
    33    18    19   ar
    34    19    20   ar
    35    17    21    1
    36    21    22    1
    37    21    23    1
    38    21    24    1
    39     8     9    1
    40     9     1    1
    41    33    26   ar
    42    20    15   ar
    43    30    34    1
    44    30    35    1
    45     7    10    1
    46    11    12    1
    47    11    13    1
@<TRIPOS>MOLECULE
*****
 45 47 0 0 0
SMALL
GASTEIGER

@<TRIPOS>ATOM
      1 S          23.5447   17.0592    1.0325 S.O2    1  UNL1       -0.0041
      2 O          23.3486   15.9632    2.0377 O.2     1  UNL1       -0.1728
      3 O          24.6059   16.0995    0.5819 O.2     1  UNL1       -0.1728
      4 C          24.1094   17.8219   -0.1291 C.3     1  UNL1        0.1540
      5 C          23.5448   19.1636   -0.4911 C.3     1  UNL1        0.0606
      6 C          22.4155   19.7426    0.3086 C.3     1  UNL1        0.1632
      7 O          21.8509   21.0843   -0.0534 O.3     1  UNL1       -0.3788
      8 C          21.8508   18.9799    1.4702 C.3     1  UNL1        0.1039
      9 C          22.4154   17.6382    1.8321 C.3     1  UNL1        0.2077
     10 H          21.1206   21.4588    0.4637 H       1  UNL1        0.2106
     11 N          20.7215   19.5589    2.2699 N.4     1  UNL1        0.2567
     12 H          20.9005   19.9549    3.1927 H       1  UNL1        0.2038
     13 H          19.9536   19.9526    2.8137 H       1  UNL1        0.2038
     14 C          19.3289   19.5556    1.7125 C.3     1  UNL1        0.1296
     15 C          18.8623   20.6930    0.8531 C.ar    1  UNL1        0.0322
     16 C          18.8528   22.0903    1.3986 C.ar    1  UNL1       -0.0029
     17 C          18.3861   23.2277    0.5392 C.ar    1  UNL1       -0.0229
     18 C          17.9291   22.9678   -0.8657 C.ar    1  UNL1       -0.0043
     19 C          17.9386   21.5705   -1.4111 C.ar    1  UNL1       -0.0004
     20 C          18.4052   20.4332   -0.5517 C.ar    1  UNL1        0.0014
     21 C          18.3766   24.6250    1.0846 C.3     1  UNL1        0.0189
     22 C          17.1488   24.3044    1.8843 C.3     1  UNL1        0.0044
     23 C          19.6044   24.9456    0.2849 C.3     1  UNL1        0.0044
     24 C          18.3670   26.0223    1.6300 C.3     1  UNL1        0.0044
     25 C          24.1095   19.9264   -1.6527 C.3     1  UNL1        0.0309
     26 C          24.9813   21.1230   -1.4117 C.ar    1  UNL1       -0.0167
     27 C          24.9504   21.8179   -0.0827 C.ar    1  UNL1        0.0341
     28 C          25.8222   23.0145    0.1584 C.ar    1  UNL1        0.1535
     29 C          26.7248   23.5162   -0.9296 C.ar    1  UNL1        0.1037
     30 N          27.5966   24.7128   -0.6886 N.pl3   1  UNL1       -0.3529
     31 C          26.7556   22.8213   -2.2586 C.ar    1  UNL1        0.1556
     32 F          27.6582   23.3231   -3.3465 F       1  UNL1       -0.2028
     33 C          25.8838   21.6247   -2.4996 C.ar    1  UNL1        0.0268
     34 H          27.5764   25.1689    0.1837 H       1  UNL1        0.1425
     35 H          28.1890   25.0421   -1.4026 H       1  UNL1        0.1425
     36 O          25.7914   23.7094    1.4873 O.3     1  UNL1       -0.4665
     37 C          24.9489   24.9365    1.6727 C.3     1  UNL1        0.2891
     38 C          25.5896   26.2927    1.6755 C.3     1  UNL1        0.4366
     39 F          26.2303   27.6491    1.6784 F       1  UNL1       -0.1663
     40 F          24.8945   26.6238    0.3882 F       1  UNL1       -0.1663
     41 F          26.2846   25.9617    2.9629 F       1  UNL1       -0.1663
     42 C          23.4657   24.8074    1.8552 C.3     1  UNL1        0.1944
     43 O          22.8120   25.3504    3.0913 O.3     1  UNL1       -0.3496
     44 C          21.9174   26.5511    3.0008 C.3     1  UNL1        0.1424
     45 C          22.0808   27.5247    1.8715 C.3     1  UNL1        0.0346
@<TRIPOS>UNITY_ATOM_ATTR
11 1
charge 1
@<TRIPOS>BOND
     1     1     2    2
     2     1     3    2
     3     1     4    1
     4     4     5    1
     5     5    25    1
     6    25    26    1
     7    26    27   ar
     8    27    28   ar
     9    28    36    1
    10    36    37    1
    11    37    42    1
    12    42    43    1
    13    43    44    1
    14    44    45    1
    15    37    38    1
    16    38    39    1
    17    38    40    1
    18    38    41    1
    19    28    29   ar
    20    29    30    1
    21    29    31   ar
    22    31    32    1
    23    31    33   ar
    24     5     6    1
    25     6     7    1
    26     6     8    1
    27     8    11    1
    28    11    14    1
    29    14    15    1
    30    15    16   ar
    31    16    17   ar
    32    17    18   ar
    33    18    19   ar
    34    19    20   ar
    35    17    21    1
    36    21    22    1
    37    21    23    1
    38    21    24    1
    39     8     9    1
    40     9     1    1
    41    33    26   ar
    42    20    15   ar
    43    30    34    1
    44    30    35    1
    45     7    10    1
    46    11    12    1
    47    11    13    1
@<TRIPOS>MOLECULE
*****
 45 47 0 0 0
SMALL
GASTEIGER

@<TRIPOS>ATOM
      1 S          27.7761   24.7140   -1.5202 S.O2    1  UNL1       -0.0041
      2 O          28.5703   24.7800   -2.7911 O.2     1  UNL1       -0.1728
      3 O          28.6634   25.8837   -1.2125 O.2     1  UNL1       -0.1728
      4 C          27.2901   25.0541   -0.1426 C.3     1  UNL1        0.1540
      5 C          26.1927   24.2475    0.4860 C.3     1  UNL1        0.0606
      6 C          25.5813   23.1008   -0.2631 C.3     1  UNL1        0.1632
      7 O          24.4839   22.2943    0.3655 O.3     1  UNL1       -0.3788
      8 C          26.0673   22.7607   -1.6407 C.3     1  UNL1        0.1039
      9 C          27.1647   23.5672   -2.2693 C.3     1  UNL1        0.2077
     10 H          24.0885   21.5527   -0.1189 H       1  UNL1        0.2106
     11 N          25.4559   21.6139   -2.3899 N.4     1  UNL1        0.2567
     12 H          25.1588   21.7375   -3.3578 H       1  UNL1        0.2038
     13 H          25.0402   20.8341   -2.8993 H       1  UNL1        0.2038
     14 C          25.2815   20.2854   -1.7157 C.3     1  UNL1        0.1296
     15 C          23.9665   19.5685   -1.7999 C.ar    1  UNL1        0.0322
     16 C          23.0520   19.5369   -0.6113 C.ar    1  UNL1       -0.0029
     17 C          21.7372   18.8200   -0.6956 C.ar    1  UNL1       -0.0229
     18 C          21.3368   18.1347   -1.9684 C.ar    1  UNL1       -0.0043
     19 C          22.2512   18.1664   -3.1570 C.ar    1  UNL1       -0.0004
     20 C          23.5661   18.8832   -3.0727 C.ar    1  UNL1        0.0014
     21 C          20.8226   18.7884    0.4930 C.3     1  UNL1        0.0189
     22 C          21.9146   18.1727    1.3167 C.3     1  UNL1        0.0044
     23 C          19.7307   19.4040   -0.3308 C.3     1  UNL1        0.0044
     24 C          19.9082   18.7567    1.6815 C.3     1  UNL1        0.0044
     25 C          25.7067   24.5877    1.8638 C.3     1  UNL1        0.0309
     26 C          24.5102   25.4752    2.0391 C.ar    1  UNL1       -0.0167
     27 C          23.1720   24.8759    2.3560 C.ar    1  UNL1        0.0341
     28 C          21.9754   25.7634    2.5313 C.ar    1  UNL1        0.1535
     29 C          22.1170   27.2500    2.3898 C.ar    1  UNL1        0.1037
     30 N          20.9205   28.1374    2.5651 N.pl3   1  UNL1       -0.3529
     31 C          23.4551   27.8491    2.0729 C.ar    1  UNL1        0.1556
     32 F          23.5967   29.3358    1.9313 F       1  UNL1       -0.2028
     33 C          24.6517   26.9617    1.8976 C.ar    1  UNL1        0.0268
     34 H          20.0422   27.7441    2.7731 H       1  UNL1        0.1425
     35 H          21.0134   29.1131    2.4722 H       1  UNL1        0.1425
     36 O          20.6373   25.1642    2.8482 O.3     1  UNL1       -0.4665
     37 C          19.8320   24.5117    1.7639 C.3     1  UNL1        0.2891
     38 C          19.2630   23.1399    1.9745 C.3     1  UNL1        0.4366
     39 F          18.6941   21.7680    2.1851 F       1  UNL1       -0.1663
     40 F          18.0303   23.7440    2.5789 F       1  UNL1       -0.1663
     41 F          20.4958   22.5358    1.3701 F       1  UNL1       -0.1663
     42 C          19.5956   25.2310    0.4691 C.3     1  UNL1        0.1944
     43 O          18.4811   24.7981   -0.4368 O.3     1  UNL1       -0.3496
     44 C          18.7378   23.7796   -1.5077 C.3     1  UNL1        0.1424
     45 C          17.9277   22.5179   -1.5524 C.3     1  UNL1        0.0346
@<TRIPOS>UNITY_ATOM_ATTR
11 1
charge 1
@<TRIPOS>BOND
     1     1     2    2
     2     1     3    2
     3     1     4    1
     4     4     5    1
     5     5    25    1
     6    25    26    1
     7    26    27   ar
     8    27    28   ar
     9    28    36    1
    10    36    37    1
    11    37    42    1
    12    42    43    1
    13    43    44    1
    14    44    45    1
    15    37    38    1
    16    38    39    1
    17    38    40    1
    18    38    41    1
    19    28    29   ar
    20    29    30    1
    21    29    31   ar
    22    31    32    1
    23    31    33   ar
    24     5     6    1
    25     6     7    1
    26     6     8    1
    27     8    11    1
    28    11    14    1
    29    14    15    1
    30    15    16   ar
    31    16    17   ar
    32    17    18   ar
    33    18    19   ar
    34    19    20   ar
    35    17    21    1
    36    21    22    1
    37    21    23    1
    38    21    24    1
    39     8     9    1
    40     9     1    1
    41    33    26   ar
    42    20    15   ar
    43    30    34    1
    44    30    35    1
    45     7    10    1
    46    11    12    1
    47    11    13    1
@<TRIPOS>MOLECULE
*****
 45 47 0 0 0
SMALL
GASTEIGER

@<TRIPOS>ATOM
      1 S          26.0573   24.6627    0.0102 S.O2    1  UNL1       -0.0041
      2 O          27.2605   24.5047   -0.8714 O.2     1  UNL1       -0.1728
      3 O          26.3953   23.2274    0.2856 O.2     1  UNL1       -0.1728
      4 C          24.9715   24.3222    0.9875 C.3     1  UNL1        0.1540
      5 C          23.9655   25.3621    1.3832 C.3     1  UNL1        0.0606
      6 C          24.0453   26.7425    0.8017 C.3     1  UNL1        0.1632
      7 O          23.0394   27.7824    1.1974 O.3     1  UNL1       -0.3788
      8 C          25.1311   27.0829   -0.1756 C.3     1  UNL1        0.1039
      9 C          26.1371   26.0430   -0.5713 C.3     1  UNL1        0.2077
     10 H          23.0910   28.6750    0.8213 H       1  UNL1        0.2106
     11 N          25.2110   28.4633   -0.7572 N.4     1  UNL1        0.2567
     12 H          25.8957   29.1289   -0.3987 H       1  UNL1        0.2038
     13 H          25.2653   29.4020   -1.1527 H       1  UNL1        0.2038
     14 C          24.2839   28.8648   -1.8659 C.3     1  UNL1        0.1296
     15 C          23.6725   30.2346   -1.8733 C.ar    1  UNL1        0.0322
     16 C          22.5895   30.5777   -0.8939 C.ar    1  UNL1       -0.0029
     17 C          21.9781   31.9474   -0.9013 C.ar    1  UNL1       -0.0229
     18 C          22.4496   32.9739   -1.8881 C.ar    1  UNL1       -0.0043
     19 C          23.5326   32.6308   -2.8675 C.ar    1  UNL1       -0.0004
     20 C          24.1441   31.2611   -2.8601 C.ar    1  UNL1        0.0014
     21 C          20.8950   32.2906    0.0782 C.3     1  UNL1        0.0189
     22 C          20.3766   33.3380   -0.8621 C.3     1  UNL1        0.0044
     23 C          21.4134   31.2433    1.0185 C.3     1  UNL1        0.0044
     24 C          19.8120   32.6339    1.0575 C.3     1  UNL1        0.0044
     25 C          22.8797   25.0216    2.3605 C.3     1  UNL1        0.0309
     26 C          21.5796   24.4564    1.8703 C.ar    1  UNL1       -0.0167
     27 C          21.4021   22.9711    1.7587 C.ar    1  UNL1        0.0341
     28 C          20.1020   22.4059    1.2685 C.ar    1  UNL1        0.1535
     29 C          18.9795   23.3260    0.8898 C.ar    1  UNL1        0.1037
     30 N          17.6794   22.7608    0.3995 N.pl3   1  UNL1       -0.3529
     31 C          19.1570   24.8112    1.0013 C.ar    1  UNL1        0.1556
     32 F          18.0345   25.7314    0.6226 F       1  UNL1       -0.2028
     33 C          20.4571   25.3765    1.4916 C.ar    1  UNL1        0.0268
     34 H          17.5629   21.7859    0.3263 H       1  UNL1        0.1425
     35 H          16.9426   23.3646    0.1509 H       1  UNL1        0.1425
     36 O          19.9244   20.9206    1.1570 O.3     1  UNL1       -0.4665
     37 C          19.8213   20.0824    2.3966 C.3     1  UNL1        0.2891
     38 C          18.5735   20.1234    3.2280 C.3     1  UNL1        0.4366
     39 F          17.3256   20.1643    4.0594 F       1  UNL1       -0.1663
     40 F          17.7580   20.3639    1.9922 F       1  UNL1       -0.1663
     41 F          19.3889   19.8828    4.4637 F       1  UNL1       -0.1663
     42 C          20.9660   19.2033    2.8049 C.3     1  UNL1        0.1944
     43 O          22.3638   19.5483    2.3842 O.3     1  UNL1       -0.3496
     44 C          23.2891   18.4710    1.9010 C.3     1  UNL1        0.1424
     45 C          22.7462   17.1170    1.5519 C.3     1  UNL1        0.0346
@<TRIPOS>UNITY_ATOM_ATTR
11 1
charge 1
@<TRIPOS>BOND
     1     1     2    2
     2     1     3    2
     3     1     4    1
     4     4     5    1
     5     5    25    1
     6    25    26    1
     7    26    27   ar
     8    27    28   ar
     9    28    36    1
    10    36    37    1
    11    37    42    1
    12    42    43    1
    13    43    44    1
    14    44    45    1
    15    37    38    1
    16    38    39    1
    17    38    40    1
    18    38    41    1
    19    28    29   ar
    20    29    30    1
    21    29    31   ar
    22    31    32    1
    23    31    33   ar
    24     5     6    1
    25     6     7    1
    26     6     8    1
    27     8    11    1
    28    11    14    1
    29    14    15    1
    30    15    16   ar
    31    16    17   ar
    32    17    18   ar
    33    18    19   ar
    34    19    20   ar
    35    17    21    1
    36    21    22    1
    37    21    23    1
    38    21    24    1
    39     8     9    1
    40     9     1    1
    41    33    26   ar
    42    20    15   ar
    43    30    34    1
    44    30    35    1
    45     7    10    1
    46    11    12    1
    47    11    13    1
@<TRIPOS>MOLECULE
*****
 45 47 0 0 0
SMALL
GASTEIGER

@<TRIPOS>ATOM
      1 S          27.3615   31.6544   -1.3542 S.O2    1  UNL1       -0.0041
      2 O          28.3807   32.6951   -0.9963 O.2     1  UNL1       -0.1728
      3 O          28.1547   30.9003   -0.3284 O.2     1  UNL1       -0.1728
      4 C          26.6178   30.3517   -1.3558 C.3     1  UNL1        0.1540
      5 C          25.4348   30.1646   -2.2590 C.3     1  UNL1        0.0606
      6 C          24.9956   31.2801   -3.1604 C.3     1  UNL1        0.1632
      7 O          23.8127   31.0930   -4.0635 O.3     1  UNL1       -0.3788
      8 C          25.7393   32.5827   -3.1588 C.3     1  UNL1        0.1039
      9 C          26.9222   32.7699   -2.2556 C.3     1  UNL1        0.2077
     10 H          23.5286   31.8144   -4.6465 H       1  UNL1        0.2106
     11 N          25.3001   33.6983   -4.0602 N.4     1  UNL1        0.2567
     12 H          25.7897   33.8668   -4.9390 H       1  UNL1        0.2038
     13 H          25.0014   34.4569   -4.6732 H       1  UNL1        0.2038
     14 C          24.1408   34.5662   -3.6694 C.3     1  UNL1        0.1296
     15 C          23.7240   34.6582   -2.2313 C.ar    1  UNL1        0.0322
     16 C          22.6354   33.7691   -1.7076 C.ar    1  UNL1       -0.0029
     17 C          22.2187   33.8612   -0.2696 C.ar    1  UNL1       -0.0229
     18 C          22.8907   34.8423    0.6447 C.ar    1  UNL1       -0.0043
     19 C          23.9794   35.7314    0.1209 C.ar    1  UNL1       -0.0004
     20 C          24.3960   35.6393   -1.3171 C.ar    1  UNL1        0.0014
     21 C          21.1300   32.9721    0.2542 C.3     1  UNL1        0.0189
     22 C          20.5239   32.9070   -1.1163 C.3     1  UNL1        0.0044
     23 C          21.7362   33.0372    1.6247 C.3     1  UNL1        0.0044
     24 C          20.0414   32.0830    0.7780 C.3     1  UNL1        0.0044
     25 C          24.6911   28.8619   -2.2606 C.3     1  UNL1        0.0309
     26 C          24.1095   28.3288   -0.9849 C.ar    1  UNL1       -0.0167
     27 C          24.3582   26.9046   -0.5848 C.ar    1  UNL1        0.0341
     28 C          23.7765   26.3715    0.6909 C.ar    1  UNL1        0.1535
     29 C          22.9462   27.2625    1.5666 C.ar    1  UNL1        0.1037
     30 N          22.3646   26.7294    2.8423 N.pl3   1  UNL1       -0.3529
     31 C          22.6976   28.6866    1.1665 C.ar    1  UNL1        0.1556
     32 F          21.8672   29.5776    2.0421 F       1  UNL1       -0.2028
     33 C          23.2792   29.2197   -0.1093 C.ar    1  UNL1        0.0268
     34 H          22.5278   25.7947    3.1049 H       1  UNL1        0.1425
     35 H          21.8196   27.3142    3.4170 H       1  UNL1        0.1425
     36 O          24.0252   24.9474    1.0910 O.3     1  UNL1       -0.4665
     37 C          25.4304   24.4366    1.2116 C.3     1  UNL1        0.2891
     38 C          26.0334   23.6306    0.0995 C.3     1  UNL1        0.4366
     39 F          26.6365   22.8246   -1.0126 F       1  UNL1       -0.1663
     40 F          24.8416   22.7199    0.1133 F       1  UNL1       -0.1663
     41 F          27.2252   24.5413    0.0857 F       1  UNL1       -0.1663
     42 C          26.2326   24.7319    2.4441 C.3     1  UNL1        0.1944
     43 O          26.3611   26.1434    2.9351 O.3     1  UNL1       -0.3496
     44 C          26.9472   27.1974    2.0430 C.3     1  UNL1        0.1424
     45 C          26.4377   28.6065    2.1119 C.3     1  UNL1        0.0346
@<TRIPOS>UNITY_ATOM_ATTR
11 1
charge 1
@<TRIPOS>BOND
     1     1     2    2
     2     1     3    2
     3     1     4    1
     4     4     5    1
     5     5    25    1
     6    25    26    1
     7    26    27   ar
     8    27    28   ar
     9    28    36    1
    10    36    37    1
    11    37    42    1
    12    42    43    1
    13    43    44    1
    14    44    45    1
    15    37    38    1
    16    38    39    1
    17    38    40    1
    18    38    41    1
    19    28    29   ar
    20    29    30    1
    21    29    31   ar
    22    31    32    1
    23    31    33   ar
    24     5     6    1
    25     6     7    1
    26     6     8    1
    27     8    11    1
    28    11    14    1
    29    14    15    1
    30    15    16   ar
    31    16    17   ar
    32    17    18   ar
    33    18    19   ar
    34    19    20   ar
    35    17    21    1
    36    21    22    1
    37    21    23    1
    38    21    24    1
    39     8     9    1
    40     9     1    1
    41    33    26   ar
    42    20    15   ar
    43    30    34    1
    44    30    35    1
    45     7    10    1
    46    11    12    1
    47    11    13    1
@<TRIPOS>MOLECULE
*****
 48 52 0 0 0
SMALL
GASTEIGER

@<TRIPOS>ATOM
      1 C          23.6388   25.5344    1.5708 C.3     1  UNL1        0.1089
      2 C          23.4559   28.1160    1.3424 C.2     1  UNL1        0.2459
      3 O          23.9055   28.2737    2.7647 O.2     1  UNL1       -0.2701
      4 N          23.3225   26.7463    0.7455 N.am    1  UNL1       -0.2995
      5 H          23.0274   26.6428   -0.1880 H       1  UNL1        0.1498
      6 S          24.2140   31.7420   -4.0400 S.O2    1  UNL1        0.0590
      7 O          25.1865   30.7201   -4.5501 O.2     1  UNL1       -0.1542
      8 O          24.6217   32.3037   -5.3697 O.2     1  UNL1       -0.1542
      9 N          24.2391   30.7255   -2.9372 N.pl3   1  UNL1       -0.1911
     10 C          23.4794   30.7298   -1.6438 C.ar    1  UNL1        0.0843
     11 C          23.7957   29.5179   -0.8184 C.ar    1  UNL1        0.0221
     12 C          23.1396   29.3279    0.5170 C.ar    1  UNL1        0.0547
     13 C          22.1672   30.3498    1.0271 C.ar    1  UNL1        0.0058
     14 C          21.8509   31.5617    0.2017 C.ar    1  UNL1        0.0147
     15 C          22.5070   31.7517   -1.1337 C.ar    1  UNL1        0.0747
     16 N          22.0542   33.0216   -1.7911 N.ar    1  UNL1       -0.3234
     17 C          21.0799   33.6603   -0.8460 C.ar    1  UNL1        0.0716
     18 C          20.9570   32.7767    0.3600 C.ar    1  UNL1       -0.0035
     19 C          22.4618   33.5834   -3.1208 C.3     1  UNL1        0.1334
     20 C          23.4230   33.0139   -4.1217 C.3     1  UNL1        0.1970
     21 C          25.1435   29.5491   -3.1568 C.3     1  UNL1        0.1388
     22 C          20.0883   33.0329    1.5557 C.3     1  UNL1        0.0279
     23 C          18.6130   33.2395    1.3805 C.3     1  UNL1        0.0051
     24 C          22.5432   24.8215    2.3068 C.3     1  UNL1        0.1839
     25 O          22.2191   23.3958    1.9717 O.3     1  UNL1       -0.3775
     26 H          21.5106   22.9347    2.4476 H       1  UNL1        0.2106
     27 C          21.7720   25.5342    3.3778 C.3     1  UNL1        0.1339
     28 N          20.2723   25.5341    3.3482 N.4     1  UNL1        0.2597
     29 H          19.7454   25.3375    4.1992 H       1  UNL1        0.2040
     30 H          19.2525   25.5340    3.3281 H       1  UNL1        0.2040
     31 C          19.5474   25.8231    2.0672 C.3     1  UNL1        0.1298
     32 C          18.7461   24.7452    1.3992 C.ar    1  UNL1        0.0325
     33 C          18.9878   24.4165   -0.0442 C.ar    1  UNL1        0.0052
     34 C          18.1866   23.3386   -0.7123 C.ar    1  UNL1        0.0713
     35 C          17.1437   22.5895    0.0632 C.ar    1  UNL1        0.0038
     36 C          16.9021   22.9183    1.5067 C.ar    1  UNL1       -0.0002
     37 C          17.7033   23.9961    2.1746 C.ar    1  UNL1        0.0014
     38 C          18.4282   23.0098   -2.1557 C.3     1  UNL1        0.4186
     39 F          18.6699   22.6811   -3.5992 F       1  UNL1       -0.1659
     40 F          17.7357   21.6921   -1.9715 F       1  UNL1       -0.1659
     41 F          19.1207   24.3276   -2.3399 F       1  UNL1       -0.1659
     42 C          25.0505   25.0354    1.6602 C.3     1  UNL1        0.0486
     43 C          25.7291   24.4826    0.4421 C.ar    1  UNL1       -0.0204
     44 C          26.7496   25.3058   -0.2865 C.ar    1  UNL1       -0.0042
     45 C          27.4283   24.7531   -1.5047 C.ar    1  UNL1       -0.0003
     46 C          27.0864   23.3771   -1.9942 C.ar    1  UNL1       -0.0000
     47 C          26.0659   22.5538   -1.2656 C.ar    1  UNL1       -0.0003
     48 C          25.3873   23.1066   -0.0475 C.ar    1  UNL1       -0.0042
@<TRIPOS>UNITY_ATOM_ATTR
28 1
charge 1
@<TRIPOS>BOND
     1     6     7    2
     2     6     8    2
     3     6     9    1
     4     9    10    1
     5    10    11   ar
     6    11    12   ar
     7    12    13   ar
     8    13    14   ar
     9    14    15   ar
    10    15    16   ar
    11    16    17   ar
    12    17    18   ar
    13    18    22    1
    14    22    23    1
    15    16    19    1
    16    19    20    1
    17    12     2    1
    18     2     3    2
    19     2     4   am
    20     4     1    1
    21     1    24    1
    22    24    25    1
    23    24    27    1
    24    27    28    1
    25    28    31    1
    26    31    32    1
    27    32    33   ar
    28    33    34   ar
    29    34    35   ar
    30    35    36   ar
    31    36    37   ar
    32    34    38    1
    33    38    39    1
    34    38    40    1
    35    38    41    1
    36     1    42    1
    37    42    43    1
    38    43    44   ar
    39    44    45   ar
    40    45    46   ar
    41    46    47   ar
    42    47    48   ar
    43     9    21    1
    44    20     6    1
    45    37    32   ar
    46    48    43   ar
    47    15    10   ar
    48    18    14   ar
    49     4     5    1
    50    25    26    1
    51    28    29    1
    52    28    30    1
@<TRIPOS>MOLECULE
*****
 48 52 0 0 0
SMALL
GASTEIGER

@<TRIPOS>ATOM
      1 C          20.9027   19.6552    0.7523 C.3     1  UNL1        0.1089
      2 C          23.3230   19.8935   -0.1614 C.2     1  UNL1        0.2459
      3 O          23.5990   18.4633    0.1965 O.2     1  UNL1       -0.2701
      4 N          21.9749   20.4895    0.1166 N.am    1  UNL1       -0.2995
      5 H          21.7938   21.4283   -0.1183 H       1  UNL1        0.1498
      6 S          27.3549   25.0352   -0.1365 S.O2    1  UNL1        0.0590
      7 O          26.7919   25.4269    1.1975 O.2     1  UNL1       -0.1542
      8 O          28.1198   26.2821    0.1954 O.2     1  UNL1       -0.1542
      9 N          26.3395   23.9626    0.1251 N.pl3   1  UNL1       -0.1911
     10 C          25.9767   22.7883   -0.7347 C.ar    1  UNL1        0.0843
     11 C          24.9045   21.9540   -0.0989 C.ar    1  UNL1        0.0221
     12 C          24.3953   20.7279   -0.7971 C.ar    1  UNL1        0.0547
     13 C          24.9583   20.3362   -2.1311 C.ar    1  UNL1        0.0058
     14 C          26.0305   21.1705   -2.7669 C.ar    1  UNL1        0.0147
     15 C          26.5397   22.3965   -2.0687 C.ar    1  UNL1        0.0747
     16 N          27.6046   23.0824   -2.8723 N.ar    1  UNL1       -0.3234
     17 C          27.7793   22.2687   -4.1203 C.ar    1  UNL1        0.0716
     18 C          26.8267   21.1118   -4.0566 C.ar    1  UNL1       -0.0035
     19 C          28.3695   24.3293   -2.5404 C.3     1  UNL1        0.1334
     20 C          28.2583   25.1983   -1.3228 C.3     1  UNL1        0.1970
     21 C          25.5874   24.0798    1.4177 C.3     1  UNL1        0.1388
     22 C          26.6658   20.0438   -5.0974 C.3     1  UNL1        0.0279
     23 C          27.0598   18.6298   -4.7883 C.3     1  UNL1        0.0051
     24 C          20.9396   19.3831    2.2270 C.3     1  UNL1        0.1839
     25 O          22.2538   19.1671    2.9171 O.3     1  UNL1       -0.3775
     26 H          22.2777   18.9911    3.8707 H       1  UNL1        0.2106
     27 C          19.6624   19.3269    3.0115 C.3     1  UNL1        0.1339
     28 N          19.0134   20.5955    3.4797 N.4     1  UNL1        0.2597
     29 H          19.3393   21.0505    4.3324 H       1  UNL1        0.2040
     30 H          18.5720   21.4582    3.7981 H       1  UNL1        0.2040
     31 C          17.8851   21.1951    2.6938 C.3     1  UNL1        0.1298
     32 C          18.1264   22.4020    1.8365 C.ar    1  UNL1        0.0325
     33 C          18.1492   22.2683    0.3426 C.ar    1  UNL1        0.0052
     34 C          18.3906   23.4753   -0.5148 C.ar    1  UNL1        0.0713
     35 C          18.6092   24.8158    0.1217 C.ar    1  UNL1        0.0038
     36 C          18.5865   24.9494    1.6156 C.ar    1  UNL1       -0.0002
     37 C          18.3451   23.7426    2.4729 C.ar    1  UNL1        0.0014
     38 C          18.4133   23.3416   -2.0086 C.3     1  UNL1        0.4186
     39 F          18.4360   23.2079   -3.5025 F       1  UNL1       -0.1659
     40 F          19.3862   24.4799   -2.0957 F       1  UNL1       -0.1659
     41 F          17.4404   22.2032   -1.9216 F       1  UNL1       -0.1659
     42 C          19.7935   19.0931   -0.0865 C.3     1  UNL1        0.0486
     43 C          20.0092   18.8520   -1.5513 C.ar    1  UNL1       -0.0204
     44 C          20.9288   17.7566   -2.0036 C.ar    1  UNL1       -0.0042
     45 C          21.1445   17.5154   -3.4682 C.ar    1  UNL1       -0.0003
     46 C          20.4406   18.3696   -4.4806 C.ar    1  UNL1       -0.0000
     47 C          19.5210   19.4649   -4.0283 C.ar    1  UNL1       -0.0003
     48 C          19.3053   19.7061   -2.5636 C.ar    1  UNL1       -0.0042
@<TRIPOS>UNITY_ATOM_ATTR
28 1
charge 1
@<TRIPOS>BOND
     1     6     7    2
     2     6     8    2
     3     6     9    1
     4     9    10    1
     5    10    11   ar
     6    11    12   ar
     7    12    13   ar
     8    13    14   ar
     9    14    15   ar
    10    15    16   ar
    11    16    17   ar
    12    17    18   ar
    13    18    22    1
    14    22    23    1
    15    16    19    1
    16    19    20    1
    17    12     2    1
    18     2     3    2
    19     2     4   am
    20     4     1    1
    21     1    24    1
    22    24    25    1
    23    24    27    1
    24    27    28    1
    25    28    31    1
    26    31    32    1
    27    32    33   ar
    28    33    34   ar
    29    34    35   ar
    30    35    36   ar
    31    36    37   ar
    32    34    38    1
    33    38    39    1
    34    38    40    1
    35    38    41    1
    36     1    42    1
    37    42    43    1
    38    43    44   ar
    39    44    45   ar
    40    45    46   ar
    41    46    47   ar
    42    47    48   ar
    43     9    21    1
    44    20     6    1
    45    37    32   ar
    46    48    43   ar
    47    15    10   ar
    48    18    14   ar
    49     4     5    1
    50    25    26    1
    51    28    29    1
    52    28    30    1
@<TRIPOS>MOLECULE
*****
 48 52 0 0 0
SMALL
GASTEIGER

@<TRIPOS>ATOM
      1 C          23.8956   25.3818    1.6787 C.3     1  UNL1        0.1089
      2 C          24.4016   27.9248    1.5138 C.2     1  UNL1        0.2459
      3 O          24.9995   27.8950    2.8891 O.2     1  UNL1       -0.2701
      4 N          23.8496   26.6682    0.9086 N.am    1  UNL1       -0.2995
      5 H          23.4572   26.6877    0.0059 H       1  UNL1        0.1498
      6 S          21.3293   33.3815   -0.3513 S.O2    1  UNL1        0.0590
      7 O          20.1531   32.9625    0.4800 O.2     1  UNL1       -0.1542
      8 O          20.3538   34.5006   -0.5655 O.2     1  UNL1       -0.1542
      9 N          21.7815   32.0760    0.2328 N.pl3   1  UNL1       -0.1911
     10 C          23.0873   31.3649    0.0346 C.ar    1  UNL1        0.0843
     11 C          23.1333   30.0786    0.8047 C.ar    1  UNL1        0.0221
     12 C          24.3555   29.2112    0.7436 C.ar    1  UNL1        0.0547
     13 C          25.5317   29.6301   -0.0876 C.ar    1  UNL1        0.0058
     14 C          25.4857   30.9165   -0.8578 C.ar    1  UNL1        0.0147
     15 C          24.2635   31.7838   -0.7967 C.ar    1  UNL1        0.0747
     16 N          24.4244   33.0173   -1.6350 N.ar    1  UNL1       -0.3234
     17 C          25.7905   32.9333   -2.2490 C.ar    1  UNL1        0.0716
     18 C          26.4327   31.6620   -1.7786 C.ar    1  UNL1       -0.0035
     19 C          23.4488   34.1364   -1.8492 C.3     1  UNL1        0.1334
     20 C          22.0714   34.2984   -1.2779 C.3     1  UNL1        0.1970
     21 C          20.7977   31.3908    1.1343 C.3     1  UNL1        0.1388
     22 C          27.8034   31.1775   -2.1480 C.3     1  UNL1        0.0279
     23 C          28.9697   32.1197   -2.1014 C.3     1  UNL1        0.0051
     24 C          22.6454   24.8358    2.3023 C.3     1  UNL1        0.1839
     25 O          22.1565   23.4679    1.9286 O.3     1  UNL1       -0.3775
     26 H          21.3480   23.1148    2.3318 H       1  UNL1        0.2106
     27 C          21.8841   25.6578    3.2996 C.3     1  UNL1        0.1339
     28 N          20.3842   25.6413    3.2962 N.4     1  UNL1        0.2597
     29 H          19.8743   25.4470    4.1580 H       1  UNL1        0.2040
     30 H          19.3642   25.6301    3.2939 H       1  UNL1        0.2040
     31 C          19.6340   25.9105    2.0254 C.3     1  UNL1        0.1298
     32 C          18.8242   24.8211    1.3874 C.ar    1  UNL1        0.0325
     33 C          19.0383   24.4748   -0.0563 C.ar    1  UNL1        0.0052
     34 C          18.2284   23.3853   -0.6944 C.ar    1  UNL1        0.0713
     35 C          17.2044   22.6421    0.1112 C.ar    1  UNL1        0.0038
     36 C          16.9903   22.9884    1.5550 C.ar    1  UNL1       -0.0002
     37 C          17.8002   24.0778    2.1930 C.ar    1  UNL1        0.0014
     38 C          18.4425   23.0391   -2.1381 C.3     1  UNL1        0.4186
     39 F          18.6566   22.6928   -3.5818 F       1  UNL1       -0.1659
     40 F          19.1835   24.3279   -2.3373 F       1  UNL1       -0.1659
     41 F          17.7014   21.7502   -1.9389 F       1  UNL1       -0.1659
     42 C          25.1919   24.6413    1.8252 C.3     1  UNL1        0.0486
     43 C          26.0966   24.4715    0.6409 C.ar    1  UNL1       -0.0204
     44 C          25.7402   23.4959   -0.4414 C.ar    1  UNL1       -0.0042
     45 C          26.6448   23.3260   -1.6257 C.ar    1  UNL1       -0.0003
     46 C          27.9060   24.1317   -1.7278 C.ar    1  UNL1       -0.0000
     47 C          28.2624   25.1072   -0.6455 C.ar    1  UNL1       -0.0003
     48 C          27.3577   25.2771    0.5388 C.ar    1  UNL1       -0.0042
@<TRIPOS>UNITY_ATOM_ATTR
28 1
charge 1
@<TRIPOS>BOND
     1     6     7    2
     2     6     8    2
     3     6     9    1
     4     9    10    1
     5    10    11   ar
     6    11    12   ar
     7    12    13   ar
     8    13    14   ar
     9    14    15   ar
    10    15    16   ar
    11    16    17   ar
    12    17    18   ar
    13    18    22    1
    14    22    23    1
    15    16    19    1
    16    19    20    1
    17    12     2    1
    18     2     3    2
    19     2     4   am
    20     4     1    1
    21     1    24    1
    22    24    25    1
    23    24    27    1
    24    27    28    1
    25    28    31    1
    26    31    32    1
    27    32    33   ar
    28    33    34   ar
    29    34    35   ar
    30    35    36   ar
    31    36    37   ar
    32    34    38    1
    33    38    39    1
    34    38    40    1
    35    38    41    1
    36     1    42    1
    37    42    43    1
    38    43    44   ar
    39    44    45   ar
    40    45    46   ar
    41    46    47   ar
    42    47    48   ar
    43     9    21    1
    44    20     6    1
    45    37    32   ar
    46    48    43   ar
    47    15    10   ar
    48    18    14   ar
    49     4     5    1
    50    25    26    1
    51    28    29    1
    52    28    30    1
@<TRIPOS>MOLECULE
*****
 48 52 0 0 0
SMALL
GASTEIGER

@<TRIPOS>ATOM
      1 C          23.8129   25.6574    1.8866 C.3     1  UNL1        0.1089
      2 C          23.7512   27.5424    0.0997 C.2     1  UNL1        0.2459
      3 O          23.5197   26.5189   -0.9720 O.2     1  UNL1       -0.2701
      4 N          23.8978   27.1116    1.5291 N.am    1  UNL1       -0.2995
      5 H          24.0498   27.7834    2.2325 H       1  UNL1        0.1498
      6 S          26.1001   32.4161   -3.5639 S.O2    1  UNL1        0.0590
      7 O          26.8957   31.4062   -4.3365 O.2     1  UNL1       -0.1542
      8 O          26.8205   33.2602   -4.5731 O.2     1  UNL1       -0.1542
      9 N          25.7336   31.1227   -2.8985 N.pl3   1  UNL1       -0.1911
     10 C          24.8017   30.8953   -1.7453 C.ar    1  UNL1        0.0843
     11 C          24.7168   29.4411   -1.3878 C.ar    1  UNL1        0.0221
     12 C          23.8362   28.9967   -0.2578 C.ar    1  UNL1        0.0547
     13 C          23.0405   30.0067    0.5148 C.ar    1  UNL1        0.0058
     14 C          23.1254   31.4609    0.1573 C.ar    1  UNL1        0.0147
     15 C          24.0060   31.9053   -0.9727 C.ar    1  UNL1        0.0747
     16 N          23.9457   33.3920   -1.1625 N.ar    1  UNL1       -0.3234
     17 C          22.9980   33.9108   -0.1219 C.ar    1  UNL1        0.0716
     18 C          22.5016   32.7422    0.6768 C.ar    1  UNL1       -0.0035
     19 C          24.6662   34.2360   -2.1717 C.3     1  UNL1        0.1334
     20 C          25.6250   33.8017   -3.2405 C.3     1  UNL1        0.1970
     21 C          26.3853   29.8942   -3.4606 C.3     1  UNL1        0.1388
     22 C          21.5342   32.8038    1.8215 C.3     1  UNL1        0.0279
     23 C          20.0641   32.9365    1.5546 C.3     1  UNL1        0.0051
     24 C          22.4757   25.0198    2.1221 C.3     1  UNL1        0.1839
     25 O          22.3063   23.5413    1.9340 O.3     1  UNL1       -0.3775
     26 H          21.4416   23.1289    2.0863 H       1  UNL1        0.2106
     27 C          21.3080   25.8606    2.5456 C.3     1  UNL1        0.1339
     28 N          20.1724   25.2396    3.3036 N.4     1  UNL1        0.2597
     29 H          20.2852   25.0052    4.2899 H       1  UNL1        0.2040
     30 H          19.4001   24.8173    3.8190 H       1  UNL1        0.2040
     31 C          18.8707   24.9632    2.6111 C.3     1  UNL1        0.1298
     32 C          18.8502   24.1556    1.3473 C.ar    1  UNL1        0.0325
     33 C          19.0073   22.6650    1.4072 C.ar    1  UNL1        0.0052
     34 C          18.9868   21.8573    0.1433 C.ar    1  UNL1        0.0713
     35 C          18.8093   22.5403   -1.1804 C.ar    1  UNL1        0.0038
     36 C          18.6522   24.0309   -1.2402 C.ar    1  UNL1       -0.0002
     37 C          18.6727   24.8385    0.0236 C.ar    1  UNL1        0.0014
     38 C          19.1438   20.3668    0.2031 C.3     1  UNL1        0.4186
     39 F          19.3009   18.8762    0.2630 F       1  UNL1       -0.1659
     40 F          19.8860   20.3927   -1.1001 F       1  UNL1       -0.1659
     41 F          18.4017   20.3410    1.5064 F       1  UNL1       -0.1659
     42 C          25.0652   24.8407    2.0087 C.3     1  UNL1        0.0486
     43 C          25.8926   24.5501    0.7918 C.ar    1  UNL1       -0.0204
     44 C          27.0764   25.4119    0.4664 C.ar    1  UNL1       -0.0042
     45 C          27.9039   25.1214   -0.7505 C.ar    1  UNL1       -0.0003
     46 C          27.5476   23.9689   -1.6420 C.ar    1  UNL1       -0.0000
     47 C          26.3638   23.1070   -1.3166 C.ar    1  UNL1       -0.0003
     48 C          25.5364   23.3976   -0.0997 C.ar    1  UNL1       -0.0042
@<TRIPOS>UNITY_ATOM_ATTR
28 1
charge 1
@<TRIPOS>BOND
     1     6     7    2
     2     6     8    2
     3     6     9    1
     4     9    10    1
     5    10    11   ar
     6    11    12   ar
     7    12    13   ar
     8    13    14   ar
     9    14    15   ar
    10    15    16   ar
    11    16    17   ar
    12    17    18   ar
    13    18    22    1
    14    22    23    1
    15    16    19    1
    16    19    20    1
    17    12     2    1
    18     2     3    2
    19     2     4   am
    20     4     1    1
    21     1    24    1
    22    24    25    1
    23    24    27    1
    24    27    28    1
    25    28    31    1
    26    31    32    1
    27    32    33   ar
    28    33    34   ar
    29    34    35   ar
    30    35    36   ar
    31    36    37   ar
    32    34    38    1
    33    38    39    1
    34    38    40    1
    35    38    41    1
    36     1    42    1
    37    42    43    1
    38    43    44   ar
    39    44    45   ar
    40    45    46   ar
    41    46    47   ar
    42    47    48   ar
    43     9    21    1
    44    20     6    1
    45    37    32   ar
    46    48    43   ar
    47    15    10   ar
    48    18    14   ar
    49     4     5    1
    50    25    26    1
    51    28    29    1
    52    28    30    1
@<TRIPOS>MOLECULE
*****
 48 52 0 0 0
SMALL
GASTEIGER

@<TRIPOS>ATOM
      1 C          24.0114   25.9854    1.1293 C.3     1  UNL1        0.1089
      2 C          25.5889   24.1668    0.1525 C.2     1  UNL1        0.2459
      3 O          25.8195   23.6256    1.5323 O.2     1  UNL1       -0.2701
      4 N          24.6849   25.3467   -0.0490 N.am    1  UNL1       -0.2995
      5 H          24.5336   25.7019   -0.9546 H       1  UNL1        0.1498
      6 S          30.3795   23.9449   -4.2852 S.O2    1  UNL1        0.0590
      7 O          30.9610   25.1829   -3.6692 O.2     1  UNL1       -0.1542
      8 O          31.5943   24.1981   -5.1280 O.2     1  UNL1       -0.1542
      9 N          29.4235   24.2426   -3.1684 N.pl3   1  UNL1       -0.1911
     10 C          28.1906   23.4886   -2.7666 C.ar    1  UNL1        0.0843
     11 C          27.5172   24.1273   -1.5883 C.ar    1  UNL1        0.0221
     12 C          26.2623   23.5281   -1.0259 C.ar    1  UNL1        0.0547
     13 C          25.6809   22.2902   -1.6419 C.ar    1  UNL1        0.0058
     14 C          26.3543   21.6514   -2.8203 C.ar    1  UNL1        0.0147
     15 C          27.6091   22.2507   -3.3826 C.ar    1  UNL1        0.0747
     16 N          28.1170   21.4610   -4.5525 N.ar    1  UNL1       -0.3234
     17 C          27.1568   20.3242   -4.7413 C.ar    1  UNL1        0.0716
     18 C          26.0900   20.4394   -3.6931 C.ar    1  UNL1       -0.0035
     19 C          29.3318   21.7142   -5.3953 C.3     1  UNL1        0.1334
     20 C          30.3387   22.8197   -5.2763 C.3     1  UNL1        0.1970
     21 C          29.7427   25.4545   -2.3441 C.3     1  UNL1        0.1388
     22 C          24.9267   19.5099   -3.5131 C.3     1  UNL1        0.0279
     23 C          24.6531   18.9022   -2.1692 C.3     1  UNL1        0.0051
     24 C          22.9361   25.2469    1.8698 C.3     1  UNL1        0.1839
     25 O          22.7361   23.7790    1.6347 O.3     1  UNL1       -0.3775
     26 H          22.0407   23.3014    2.1135 H       1  UNL1        0.2106
     27 C          22.0607   25.9763    2.8454 C.3     1  UNL1        0.1339
     28 N          20.6434   25.5335    3.0578 N.4     1  UNL1        0.2597
     29 H          20.3957   24.9979    3.8898 H       1  UNL1        0.2040
     30 H          19.6796   25.2324    3.2023 H       1  UNL1        0.2040
     31 C          19.5904   25.8784    2.0467 C.3     1  UNL1        0.1298
     32 C          18.7880   24.7895    1.3984 C.ar    1  UNL1        0.0325
     33 C          19.0505   24.4133   -0.0298 C.ar    1  UNL1        0.0052
     34 C          18.2480   23.3244   -0.6782 C.ar    1  UNL1        0.0713
     35 C          17.1831   22.6117    0.1015 C.ar    1  UNL1        0.0038
     36 C          16.9207   22.9879    1.5297 C.ar    1  UNL1       -0.0002
     37 C          17.7231   24.0768    2.1781 C.ar    1  UNL1        0.0014
     38 C          18.5105   22.9483   -2.1063 C.3     1  UNL1        0.4186
     39 F          18.7730   22.5721   -3.5345 F       1  UNL1       -0.1659
     40 F          18.9147   24.3617   -2.4043 F       1  UNL1       -0.1659
     41 F          18.1064   21.5348   -1.8083 F       1  UNL1       -0.1659
     42 C          24.4133   27.3626    1.5673 C.3     1  UNL1        0.0486
     43 C          23.9238   28.5625    0.8118 C.ar    1  UNL1       -0.0204
     44 C          23.8831   28.5396   -0.6875 C.ar    1  UNL1       -0.0042
     45 C          23.3936   29.7394   -1.4429 C.ar    1  UNL1       -0.0003
     46 C          22.9448   30.9622   -0.6991 C.ar    1  UNL1       -0.0000
     47 C          22.9854   30.9851    0.8002 C.ar    1  UNL1       -0.0003
     48 C          23.4749   29.7853    1.5556 C.ar    1  UNL1       -0.0042
@<TRIPOS>UNITY_ATOM_ATTR
28 1
charge 1
@<TRIPOS>BOND
     1     6     7    2
     2     6     8    2
     3     6     9    1
     4     9    10    1
     5    10    11   ar
     6    11    12   ar
     7    12    13   ar
     8    13    14   ar
     9    14    15   ar
    10    15    16   ar
    11    16    17   ar
    12    17    18   ar
    13    18    22    1
    14    22    23    1
    15    16    19    1
    16    19    20    1
    17    12     2    1
    18     2     3    2
    19     2     4   am
    20     4     1    1
    21     1    24    1
    22    24    25    1
    23    24    27    1
    24    27    28    1
    25    28    31    1
    26    31    32    1
    27    32    33   ar
    28    33    34   ar
    29    34    35   ar
    30    35    36   ar
    31    36    37   ar
    32    34    38    1
    33    38    39    1
    34    38    40    1
    35    38    41    1
    36     1    42    1
    37    42    43    1
    38    43    44   ar
    39    44    45   ar
    40    45    46   ar
    41    46    47   ar
    42    47    48   ar
    43     9    21    1
    44    20     6    1
    45    37    32   ar
    46    48    43   ar
    47    15    10   ar
    48    18    14   ar
    49     4     5    1
    50    25    26    1
    51    28    29    1
    52    28    30    1
@<TRIPOS>MOLECULE
*****
 48 52 0 0 0
SMALL
GASTEIGER

@<TRIPOS>ATOM
      1 C          21.3453   19.8985    1.1906 C.3     1  UNL1        0.1089
      2 C          23.3295   20.2787   -0.4428 C.2     1  UNL1        0.2459
      3 O          23.0277   18.9716   -1.1138 O.2     1  UNL1       -0.2701
      4 N          22.4883   20.7422    0.7094 N.am    1  UNL1       -0.2995
      5 H          22.6864   21.6002    1.1497 H       1  UNL1        0.1498
      6 S          27.4833   25.2668    0.3041 S.O2    1  UNL1        0.0590
      7 O          26.8233   25.5755    1.6152 O.2     1  UNL1       -0.1542
      8 O          28.2518   26.4590    0.7920 O.2     1  UNL1       -0.1542
      9 N          26.4212   24.2119    0.3995 N.pl3   1  UNL1       -0.1911
     10 C          26.0987   23.1185   -0.5754 C.ar    1  UNL1        0.0843
     11 C          24.9556   22.2748   -0.0941 C.ar    1  UNL1        0.0221
     12 C          24.4726   21.1225   -0.9240 C.ar    1  UNL1        0.0547
     13 C          25.1326   20.8138   -2.2352 C.ar    1  UNL1        0.0058
     14 C          26.2757   21.6575   -2.7164 C.ar    1  UNL1        0.0147
     15 C          26.7587   22.8098   -1.8865 C.ar    1  UNL1        0.0747
     16 N          27.9042   23.5184   -2.5466 N.ar    1  UNL1       -0.3234
     17 C          28.1589   22.7958   -3.8362 C.ar    1  UNL1        0.0716
     18 C          27.1734   21.6696   -3.9389 C.ar    1  UNL1       -0.0035
     19 C          28.6727   24.7106   -2.0586 C.3     1  UNL1        0.1334
     20 C          28.4853   25.4887   -0.7899 C.3     1  UNL1        0.1970
     21 C          25.5688   24.2564    1.6330 C.3     1  UNL1        0.1388
     22 C          27.0698   20.6891   -5.0693 C.3     1  UNL1        0.0279
     23 C          27.7419   20.9798   -6.3784 C.3     1  UNL1        0.0051
     24 C          21.5731   18.8599    2.2486 C.3     1  UNL1        0.1839
     25 O          21.2137   19.1513    3.6755 O.3     1  UNL1       -0.3775
     26 H          21.3611   18.4797    4.3596 H       1  UNL1        0.2106
     27 C          22.1603   17.5298    1.8797 C.3     1  UNL1        0.1339
     28 N          21.2948   16.3047    1.8698 N.4     1  UNL1        0.2597
     29 H          20.8017   16.0218    2.7167 H       1  UNL1        0.2040
     30 H          20.7063   15.4717    1.8630 H       1  UNL1        0.2040
     31 C          21.1545   15.4957    0.6144 C.3     1  UNL1        0.1298
     32 C          20.0899   15.8399   -0.3846 C.ar    1  UNL1        0.0325
     33 C          20.2261   17.0701   -1.2319 C.ar    1  UNL1        0.0052
     34 C          19.1615   17.4144   -2.2310 C.ar    1  UNL1        0.0713
     35 C          17.9607   16.5284   -2.3828 C.ar    1  UNL1        0.0038
     36 C          17.8245   15.2981   -1.5354 C.ar    1  UNL1       -0.0002
     37 C          18.8891   14.9539   -0.5364 C.ar    1  UNL1        0.0014
     38 C          19.2977   18.6447   -3.0782 C.3     1  UNL1        0.4186
     39 F          19.4340   19.8750   -3.9255 F       1  UNL1       -0.1659
     40 F          17.8215   18.8856   -2.9657 F       1  UNL1       -0.1659
     41 F          20.7739   18.4037   -3.1908 F       1  UNL1       -0.1659
     42 C          19.9743   20.0935    0.6139 C.3     1  UNL1        0.0486
     43 C          19.5222   21.4628    0.2008 C.ar    1  UNL1       -0.0204
     44 C          18.9085   21.6738   -1.1515 C.ar    1  UNL1       -0.0042
     45 C          18.4563   23.0431   -1.5646 C.ar    1  UNL1       -0.0003
     46 C          18.6180   24.2014   -0.6253 C.ar    1  UNL1       -0.0000
     47 C          19.2317   23.9904    0.7270 C.ar    1  UNL1       -0.0003
     48 C          19.6839   22.6211    1.1401 C.ar    1  UNL1       -0.0042
@<TRIPOS>UNITY_ATOM_ATTR
28 1
charge 1
@<TRIPOS>BOND
     1     6     7    2
     2     6     8    2
     3     6     9    1
     4     9    10    1
     5    10    11   ar
     6    11    12   ar
     7    12    13   ar
     8    13    14   ar
     9    14    15   ar
    10    15    16   ar
    11    16    17   ar
    12    17    18   ar
    13    18    22    1
    14    22    23    1
    15    16    19    1
    16    19    20    1
    17    12     2    1
    18     2     3    2
    19     2     4   am
    20     4     1    1
    21     1    24    1
    22    24    25    1
    23    24    27    1
    24    27    28    1
    25    28    31    1
    26    31    32    1
    27    32    33   ar
    28    33    34   ar
    29    34    35   ar
    30    35    36   ar
    31    36    37   ar
    32    34    38    1
    33    38    39    1
    34    38    40    1
    35    38    41    1
    36     1    42    1
    37    42    43    1
    38    43    44   ar
    39    44    45   ar
    40    45    46   ar
    41    46    47   ar
    42    47    48   ar
    43     9    21    1
    44    20     6    1
    45    37    32   ar
    46    48    43   ar
    47    15    10   ar
    48    18    14   ar
    49     4     5    1
    50    25    26    1
    51    28    29    1
    52    28    30    1
@<TRIPOS>MOLECULE
*****
 48 52 0 0 0
SMALL
GASTEIGER

@<TRIPOS>ATOM
      1 C          24.4315   18.4650   -0.4406 C.3     1  UNL1        0.1089
      2 C          24.4314   21.0361   -0.0672 C.2     1  UNL1        0.2459
      3 O          23.1010   20.9365    0.6183 O.2     1  UNL1       -0.2701
      4 N          25.0967   19.8003   -0.5967 N.am    1  UNL1       -0.2995
      5 H          25.9699   19.8657   -1.0467 H       1  UNL1        0.1498
      6 S          25.0139   27.3626    1.4589 S.O2    1  UNL1        0.0590
      7 O          23.8700   27.2019    2.4158 O.2     1  UNL1       -0.1542
      8 O          24.8644   28.7396    2.0346 O.2     1  UNL1       -0.1542
      9 N          24.6544   25.9141    1.3089 N.pl3   1  UNL1       -0.1911
     10 C          25.2833   24.8813    0.4213 C.ar    1  UNL1        0.0843
     11 C          24.6181   23.5460    0.5774 C.ar    1  UNL1        0.0221
     12 C          25.0967   22.3715   -0.2234 C.ar    1  UNL1        0.0547
     13 C          26.2406   22.5322   -1.1803 C.ar    1  UNL1        0.0058
     14 C          26.9058   23.8675   -1.3364 C.ar    1  UNL1        0.0147
     15 C          26.4272   25.0420   -0.5356 C.ar    1  UNL1        0.0747
     16 N          27.2246   26.2752   -0.8413 N.ar    1  UNL1       -0.3234
     17 C          28.2422   25.8744   -1.8679 C.ar    1  UNL1        0.0716
     18 C          28.0493   24.4173   -2.1675 C.ar    1  UNL1       -0.0035
     19 C          27.0752   27.6523   -0.2655 C.3     1  UNL1        0.1334
     20 C          26.0913   28.1361    0.7581 C.3     1  UNL1        0.1970
     21 C          23.5152   25.4349    2.1590 C.3     1  UNL1        0.1388
     22 C          28.8522   23.6029   -3.1381 C.3     1  UNL1        0.0279
     23 C          29.8692   24.2703   -4.0158 C.3     1  UNL1        0.0051
     24 C          24.4835   17.7506    0.8774 C.3     1  UNL1        0.1839
     25 O          25.7954   17.5720    1.5824 O.3     1  UNL1       -0.3775
     26 H          25.8291   17.1101    2.4347 H       1  UNL1        0.2106
     27 C          23.2237   17.2150    1.4904 C.3     1  UNL1        0.1339
     28 N          22.2187   18.1573    2.0835 N.4     1  UNL1        0.2597
     29 H          22.5317   18.9509    2.6428 H       1  UNL1        0.2040
     30 H          21.5353   18.7982    2.4869 H       1  UNL1        0.2040
     31 C          20.7534   17.9328    1.8544 C.3     1  UNL1        0.1298
     32 C          19.7645   18.9985    2.2237 C.ar    1  UNL1        0.0325
     33 C          19.4921   20.1294    1.2767 C.ar    1  UNL1        0.0052
     34 C          18.5032   21.1951    1.6459 C.ar    1  UNL1        0.0713
     35 C          17.7868   21.1299    2.9622 C.ar    1  UNL1        0.0038
     36 C          18.0593   19.9990    3.9092 C.ar    1  UNL1       -0.0002
     37 C          19.0481   18.9333    3.5399 C.ar    1  UNL1        0.0014
     38 C          18.2307   22.3260    0.6990 C.3     1  UNL1        0.4186
     39 F          17.9582   23.4570   -0.2481 F       1  UNL1       -0.1659
     40 F          19.6702   22.7399    0.7790 F       1  UNL1       -0.1659
     41 F          16.7912   21.9122    0.6189 F       1  UNL1       -0.1659
     42 C          23.7143   17.8440   -1.6025 C.3     1  UNL1        0.0486
     43 C          22.2188   17.9214   -1.6889 C.ar    1  UNL1       -0.0204
     44 C          21.3940   16.6763   -1.5488 C.ar    1  UNL1       -0.0042
     45 C          19.8985   16.7537   -1.6353 C.ar    1  UNL1       -0.0003
     46 C          19.2278   18.0761   -1.8618 C.ar    1  UNL1       -0.0000
     47 C          20.0526   19.3211   -2.0020 C.ar    1  UNL1       -0.0003
     48 C          21.5481   19.2438   -1.9155 C.ar    1  UNL1       -0.0042
@<TRIPOS>UNITY_ATOM_ATTR
28 1
charge 1
@<TRIPOS>BOND
     1     6     7    2
     2     6     8    2
     3     6     9    1
     4     9    10    1
     5    10    11   ar
     6    11    12   ar
     7    12    13   ar
     8    13    14   ar
     9    14    15   ar
    10    15    16   ar
    11    16    17   ar
    12    17    18   ar
    13    18    22    1
    14    22    23    1
    15    16    19    1
    16    19    20    1
    17    12     2    1
    18     2     3    2
    19     2     4   am
    20     4     1    1
    21     1    24    1
    22    24    25    1
    23    24    27    1
    24    27    28    1
    25    28    31    1
    26    31    32    1
    27    32    33   ar
    28    33    34   ar
    29    34    35   ar
    30    35    36   ar
    31    36    37   ar
    32    34    38    1
    33    38    39    1
    34    38    40    1
    35    38    41    1
    36     1    42    1
    37    42    43    1
    38    43    44   ar
    39    44    45   ar
    40    45    46   ar
    41    46    47   ar
    42    47    48   ar
    43     9    21    1
    44    20     6    1
    45    37    32   ar
    46    48    43   ar
    47    15    10   ar
    48    18    14   ar
    49     4     5    1
    50    25    26    1
    51    28    29    1
    52    28    30    1
@<TRIPOS>MOLECULE
*****
 48 52 0 0 0
SMALL
GASTEIGER

@<TRIPOS>ATOM
      1 C          21.3705   19.5256    0.7819 C.3     1  UNL1        0.1089
      2 C          23.3774   19.9605   -0.8097 C.2     1  UNL1        0.2459
      3 O          23.1265   18.6452   -1.4856 O.2     1  UNL1       -0.2701
      4 N          22.4994   20.4008    0.3240 N.am    1  UNL1       -0.2995
      5 H          22.6641   21.2641    0.7676 H       1  UNL1        0.1498
      6 S          27.4318   25.0099    0.0616 S.O2    1  UNL1        0.0590
      7 O          26.7601   25.2784    1.3756 O.2     1  UNL1       -0.1542
      8 O          28.1752   26.2059    0.5781 O.2     1  UNL1       -0.1542
      9 N          26.3896   23.9332    0.1297 N.pl3   1  UNL1       -0.1911
     10 C          26.0924   22.8545   -0.8693 C.ar    1  UNL1        0.0843
     11 C          24.9635   21.9794   -0.4114 C.ar    1  UNL1        0.0221
     12 C          24.5064   20.8358   -1.2676 C.ar    1  UNL1        0.0547
     13 C          25.1781   20.5673   -2.5816 C.ar    1  UNL1        0.0058
     14 C          26.3070   21.4424   -3.0395 C.ar    1  UNL1        0.0147
     15 C          26.7641   22.5860   -2.1834 C.ar    1  UNL1        0.0747
     16 N          27.8989   23.3299   -2.8228 N.ar    1  UNL1       -0.3234
     17 C          28.1732   22.6394   -4.1260 C.ar    1  UNL1        0.0716
     18 C          27.2098   21.4972   -4.2571 C.ar    1  UNL1       -0.0035
     19 C          28.6423   24.5260   -2.3063 C.3     1  UNL1        0.1334
     20 C          28.4343   25.2736   -1.0226 C.3     1  UNL1        0.1970
     21 C          25.5309   23.9356    1.3597 C.3     1  UNL1        0.1388
     22 C          27.1301   20.5387   -5.4081 C.3     1  UNL1        0.0279
     23 C          26.0283   20.6691   -6.4177 C.3     1  UNL1        0.0051
     24 C          21.5578   18.6140    1.9583 C.3     1  UNL1        0.1839
     25 O          21.7264   19.1892    3.3334 O.3     1  UNL1       -0.3775
     26 H          21.8475   18.5997    4.0942 H       1  UNL1        0.2106
     27 C          21.5765   17.1274    1.7597 C.3     1  UNL1        0.1339
     28 N          22.8797   16.3849    1.7762 N.4     1  UNL1        0.2597
     29 H          23.7145   16.8283    2.1594 H       1  UNL1        0.2040
     30 H          23.7659   15.8800    1.7874 H       1  UNL1        0.2040
     31 C          22.9553   14.9902    1.2291 C.3     1  UNL1        0.1298
     32 C          23.2234   13.8369    2.1498 C.ar    1  UNL1        0.0325
     33 C          22.1276   12.8651    2.4734 C.ar    1  UNL1        0.0052
     34 C          22.3957   11.7117    3.3942 C.ar    1  UNL1        0.0713
     35 C          23.7597   11.5301    3.9914 C.ar    1  UNL1        0.0038
     36 C          24.8555   12.5020    3.6678 C.ar    1  UNL1       -0.0002
     37 C          24.5874   13.6553    2.7470 C.ar    1  UNL1        0.0014
     38 C          21.2999   10.7399    3.7178 C.3     1  UNL1        0.4186
     39 F          20.2040    9.7681    4.0414 F       1  UNL1       -0.1659
     40 F          20.2802   11.7305    3.2394 F       1  UNL1       -0.1659
     41 F          22.3196    9.7494    4.1963 F       1  UNL1       -0.1659
     42 C          20.0543   19.5620    0.0633 C.3     1  UNL1        0.0486
     43 C          19.0884   20.6798    0.3236 C.ar    1  UNL1       -0.0204
     44 C          18.7384   21.6396   -0.7747 C.ar    1  UNL1       -0.0042
     45 C          17.7726   22.7573   -0.5144 C.ar    1  UNL1       -0.0003
     46 C          17.1567   22.9152    0.8441 C.ar    1  UNL1       -0.0000
     47 C          17.5067   21.9554    1.9424 C.ar    1  UNL1       -0.0003
     48 C          18.4725   20.8377    1.6822 C.ar    1  UNL1       -0.0042
@<TRIPOS>UNITY_ATOM_ATTR
28 1
charge 1
@<TRIPOS>BOND
     1     6     7    2
     2     6     8    2
     3     6     9    1
     4     9    10    1
     5    10    11   ar
     6    11    12   ar
     7    12    13   ar
     8    13    14   ar
     9    14    15   ar
    10    15    16   ar
    11    16    17   ar
    12    17    18   ar
    13    18    22    1
    14    22    23    1
    15    16    19    1
    16    19    20    1
    17    12     2    1
    18     2     3    2
    19     2     4   am
    20     4     1    1
    21     1    24    1
    22    24    25    1
    23    24    27    1
    24    27    28    1
    25    28    31    1
    26    31    32    1
    27    32    33   ar
    28    33    34   ar
    29    34    35   ar
    30    35    36   ar
    31    36    37   ar
    32    34    38    1
    33    38    39    1
    34    38    40    1
    35    38    41    1
    36     1    42    1
    37    42    43    1
    38    43    44   ar
    39    44    45   ar
    40    45    46   ar
    41    46    47   ar
    42    47    48   ar
    43     9    21    1
    44    20     6    1
    45    37    32   ar
    46    48    43   ar
    47    15    10   ar
    48    18    14   ar
    49     4     5    1
    50    25    26    1
    51    28    29    1
    52    28    30    1
@<TRIPOS>MOLECULE
*****
 48 52 0 0 0
SMALL
GASTEIGER

@<TRIPOS>ATOM
      1 C          21.7105   18.8919    1.3428 C.3     1  UNL1        0.1089
      2 C          20.0747   18.0513   -0.4922 C.2     1  UNL1        0.2459
      3 O          20.2038   19.3629   -1.2083 O.2     1  UNL1       -0.2701
      4 N          20.8280   17.8158    0.7833 N.am    1  UNL1       -0.2995
      5 H          20.7433   16.9549    1.2533 H       1  UNL1        0.1498
      6 S          17.5692   12.0197   -0.3043 S.O2    1  UNL1        0.0590
      7 O          18.3692   11.7630    0.9384 O.2     1  UNL1       -0.1542
      8 O          17.2040   10.6066    0.0418 O.2     1  UNL1       -0.1542
      9 N          18.2904   13.3186   -0.0974 N.pl3   1  UNL1       -0.1911
     10 C          18.2273   14.5660   -0.9280 C.ar    1  UNL1        0.0843
     11 C          19.1097   15.6422   -0.3685 C.ar    1  UNL1        0.0221
     12 C          19.1922   16.9750   -1.0517 C.ar    1  UNL1        0.0547
     13 C          18.3923   17.2316   -2.2944 C.ar    1  UNL1        0.0058
     14 C          17.5098   16.1555   -2.8539 C.ar    1  UNL1        0.0147
     15 C          17.4273   14.8227   -2.1707 C.ar    1  UNL1        0.0747
     16 N          16.4930   13.8952   -2.8897 N.ar    1  UNL1       -0.3234
     17 C          15.9641   14.6602   -4.0666 C.ar    1  UNL1        0.0716
     18 C          16.5795   16.0279   -4.0450 C.ar    1  UNL1       -0.0035
     19 C          16.1278   12.4821   -2.5436 C.3     1  UNL1        0.1334
     20 C          16.6068   11.6474   -1.3929 C.3     1  UNL1        0.1970
     21 C          19.1942   13.3779    1.0982 C.3     1  UNL1        0.1388
     22 C          16.3295   17.1230   -5.0391 C.3     1  UNL1        0.0279
     23 C          17.0993   17.1577   -6.3261 C.3     1  UNL1        0.0051
     24 C          21.1090   20.0305    2.1123 C.3     1  UNL1        0.1839
     25 O          21.6696   21.4140    1.9655 O.3     1  UNL1       -0.3775
     26 H          21.2807   22.1502    2.4631 H       1  UNL1        0.2106
     27 C          19.9470   19.7854    3.0286 C.3     1  UNL1        0.1339
     28 N          18.5448   19.9526    2.5228 N.4     1  UNL1        0.2597
     29 H          18.0786   19.1799    2.0475 H       1  UNL1        0.2040
     30 H          17.5913   20.0663    2.1789 H       1  UNL1        0.2040
     31 C          17.8282   21.2561    2.7161 C.3     1  UNL1        0.1298
     32 C          18.1176   22.4132    1.8066 C.ar    1  UNL1        0.0325
     33 C          18.1241   22.2150    0.3198 C.ar    1  UNL1        0.0052
     34 C          18.4136   23.3722   -0.5899 C.ar    1  UNL1        0.0713
     35 C          18.6966   24.7274   -0.0126 C.ar    1  UNL1        0.0038
     36 C          18.6902   24.9255    1.4743 C.ar    1  UNL1       -0.0002
     37 C          18.4007   23.7684    2.3838 C.ar    1  UNL1        0.0014
     38 C          18.4200   23.1740   -2.0767 C.3     1  UNL1        0.4186
     39 F          18.4265   22.9759   -3.5636 F       1  UNL1       -0.1659
     40 F          17.5842   21.9389   -1.9157 F       1  UNL1       -0.1659
     41 F          19.2559   24.4091   -2.2377 F       1  UNL1       -0.1659
     42 C          23.1944   18.8297    1.1329 C.3     1  UNL1        0.0486
     43 C          23.7967   19.3723   -0.1293 C.ar    1  UNL1       -0.0204
     44 C          23.6783   18.5995   -1.4094 C.ar    1  UNL1       -0.0042
     45 C          24.2806   19.1420   -2.6715 C.ar    1  UNL1       -0.0003
     46 C          25.0012   20.4574   -2.6534 C.ar    1  UNL1       -0.0000
     47 C          25.1196   21.2302   -1.3733 C.ar    1  UNL1       -0.0003
     48 C          24.5174   20.6877   -0.1112 C.ar    1  UNL1       -0.0042
@<TRIPOS>UNITY_ATOM_ATTR
28 1
charge 1
@<TRIPOS>BOND
     1     6     7    2
     2     6     8    2
     3     6     9    1
     4     9    10    1
     5    10    11   ar
     6    11    12   ar
     7    12    13   ar
     8    13    14   ar
     9    14    15   ar
    10    15    16   ar
    11    16    17   ar
    12    17    18   ar
    13    18    22    1
    14    22    23    1
    15    16    19    1
    16    19    20    1
    17    12     2    1
    18     2     3    2
    19     2     4   am
    20     4     1    1
    21     1    24    1
    22    24    25    1
    23    24    27    1
    24    27    28    1
    25    28    31    1
    26    31    32    1
    27    32    33   ar
    28    33    34   ar
    29    34    35   ar
    30    35    36   ar
    31    36    37   ar
    32    34    38    1
    33    38    39    1
    34    38    40    1
    35    38    41    1
    36     1    42    1
    37    42    43    1
    38    43    44   ar
    39    44    45   ar
    40    45    46   ar
    41    46    47   ar
    42    47    48   ar
    43     9    21    1
    44    20     6    1
    45    37    32   ar
    46    48    43   ar
    47    15    10   ar
    48    18    14   ar
    49     4     5    1
    50    25    26    1
    51    28    29    1
    52    28    30    1
@<TRIPOS>MOLECULE
*****
 44 46 0 0 0
SMALL
GASTEIGER

@<TRIPOS>ATOM
      1 S          24.0429   24.9097    1.7724 S.O     1  UNL1        0.0477
      2 O          24.9685   23.8120    1.3382 O.2     1  UNL1       -0.2557
      3 C          24.4857   26.3405    1.6901 C.3     1  UNL1        0.0949
      4 C          23.5601   27.4381    2.1243 C.3     1  UNL1        0.0504
      5 C          22.1918   27.1050    2.6407 C.3     1  UNL1        0.1616
      6 O          21.2663   28.2027    3.0748 O.3     1  UNL1       -0.3788
      7 C          21.7491   25.6743    2.7229 C.3     1  UNL1        0.0935
      8 C          22.6746   24.5766    2.2888 C.3     1  UNL1        0.1488
      9 H          20.3814   27.9873    3.4088 H       1  UNL1        0.2106
     10 N          20.3807   25.3411    3.2394 N.4     1  UNL1        0.2561
     11 H          20.2521   25.0937    4.2205 H       1  UNL1        0.2038
     12 H          19.4502   25.1145    3.5905 H       1  UNL1        0.2038
     13 C          19.2014   25.3718    2.3129 C.3     1  UNL1        0.1296
     14 C          19.0841   24.3571    1.2143 C.ar    1  UNL1        0.0322
     15 C          19.3473   22.9084    1.5001 C.ar    1  UNL1       -0.0029
     16 C          19.2300   21.8939    0.4015 C.ar    1  UNL1       -0.0229
     17 C          18.8494   22.3281   -0.9829 C.ar    1  UNL1       -0.0043
     18 C          18.5862   23.7769   -1.2687 C.ar    1  UNL1       -0.0004
     19 C          18.7035   24.7914   -0.1701 C.ar    1  UNL1        0.0014
     20 C          19.4932   20.4450    0.6873 C.3     1  UNL1        0.0189
     21 C          20.3317   20.3527   -0.5530 C.3     1  UNL1        0.0044
     22 C          18.6548   20.5373    1.9277 C.3     1  UNL1        0.0044
     23 C          19.7565   18.9962    0.9731 C.3     1  UNL1        0.0044
     24 C          24.0030   28.8690    2.0420 C.3     1  UNL1        0.0301
     25 C          23.8360   29.6333    0.7622 C.ar    1  UNL1       -0.0167
     26 C          22.5865   30.4272    0.5203 C.ar    1  UNL1        0.0341
     27 C          22.4195   31.1915   -0.7595 C.ar    1  UNL1        0.1538
     28 C          23.5021   31.1620   -1.7974 C.ar    1  UNL1        0.1037
     29 N          23.5011   31.6217   -2.6676 N.pl3   1  UNL1       -0.3529
     30 C          24.7516   30.3681   -1.5555 C.ar    1  UNL1        0.1556
     31 F          25.8342   30.3386   -2.5934 F       1  UNL1       -0.2028
     32 C          24.9185   29.6038   -0.2757 C.ar    1  UNL1        0.0268
     33 H          22.7294   32.1728   -2.9322 H       1  UNL1        0.1425
     34 H          24.2717   31.5305   -3.2734 H       1  UNL1        0.1425
     35 O          21.1701   31.9854   -1.0014 O.3     1  UNL1       -0.4621
     36 C          20.8601   33.1761   -0.1435 C.3     1  UNL1        0.3551
     37 C          19.4632   33.3974    0.3560 C.3     1  UNL1        0.4428
     38 F          18.0662   33.6187    0.8556 F       1  UNL1       -0.1661
     39 F          19.4304   31.9944    0.8856 F       1  UNL1       -0.1661
     40 F          19.3729   34.3288    0.0511 F       1  UNL1       -0.1661
     41 C          21.9471   34.1457    0.2149 C.3     1  UNL1        0.4428
     42 F          23.0341   35.1152    0.5734 F       1  UNL1       -0.1661
     43 F          22.0950   34.5145   -1.2315 F       1  UNL1       -0.1661
     44 F          21.7992   33.7768    1.6613 F       1  UNL1       -0.1661
@<TRIPOS>UNITY_ATOM_ATTR
10 1
charge 1
@<TRIPOS>BOND
     1     1     2    2
     2     1     3    1
     3     3     4    1
     4     4    24    1
     5    24    25    1
     6    25    26   ar
     7    26    27   ar
     8    27    35    1
     9    35    36    1
    10    36    37    1
    11    37    38    1
    12    37    39    1
    13    37    40    1
    14    36    41    1
    15    41    42    1
    16    41    43    1
    17    41    44    1
    18    27    28   ar
    19    28    29    1
    20    28    30   ar
    21    30    31    1
    22    30    32   ar
    23     4     5    1
    24     5     6    1
    25     5     7    1
    26     7    10    1
    27    10    13    1
    28    13    14    1
    29    14    15   ar
    30    15    16   ar
    31    16    17   ar
    32    17    18   ar
    33    18    19   ar
    34    16    20    1
    35    20    21    1
    36    20    22    1
    37    20    23    1
    38     7     8    1
    39     8     1    1
    40    32    25   ar
    41    19    14   ar
    42    29    33    1
    43    29    34    1
    44     6     9    1
    45    10    11    1
    46    10    12    1
@<TRIPOS>MOLECULE
*****
 44 46 0 0 0
SMALL
GASTEIGER

@<TRIPOS>ATOM
      1 S          23.9254   24.8665    1.7554 S.O     1  UNL1        0.0477
      2 O          24.8218   23.7572    1.2909 O.2     1  UNL1       -0.2557
      3 C          24.4032   26.2875    1.7062 C.3     1  UNL1        0.0949
      4 C          23.5067   27.3968    2.1707 C.3     1  UNL1        0.0504
      5 C          22.1324   27.0851    2.6846 C.3     1  UNL1        0.1616
      6 O          21.2360   28.1944    3.1491 O.3     1  UNL1       -0.3788
      7 C          21.6546   25.6641    2.7338 C.3     1  UNL1        0.0935
      8 C          22.5510   24.5548    2.2693 C.3     1  UNL1        0.1488
      9 H          20.3472   27.9928    3.4814 H       1  UNL1        0.2106
     10 N          20.2802   25.3524    3.2477 N.4     1  UNL1        0.2561
     11 H          20.1420   25.1340    4.2344 H       1  UNL1        0.2038
     12 H          19.3456   25.1404    3.5971 H       1  UNL1        0.2038
     13 C          19.1091   25.3619    2.3105 C.3     1  UNL1        0.1296
     14 C          19.0207   24.3461    1.2102 C.ar    1  UNL1        0.0322
     15 C          19.3019   22.9013    1.4990 C.ar    1  UNL1       -0.0029
     16 C          19.2135   21.8857    0.3987 C.ar    1  UNL1       -0.0229
     17 C          18.8439   22.3148   -0.9902 C.ar    1  UNL1       -0.0043
     18 C          18.5627   23.7596   -1.2790 C.ar    1  UNL1       -0.0004
     19 C          18.6511   24.7753   -0.1787 C.ar    1  UNL1        0.0014
     20 C          19.4947   20.4408    0.6874 C.3     1  UNL1        0.0189
     21 C          18.9455   20.6107    2.0728 C.3     1  UNL1        0.0044
     22 C          20.0439   20.2708   -0.6980 C.3     1  UNL1        0.0044
     23 C          19.7759   18.9960    0.9761 C.3     1  UNL1        0.0044
     24 C          23.9847   28.8178    2.1215 C.3     1  UNL1        0.0301
     25 C          23.7828   29.6343    0.8794 C.ar    1  UNL1       -0.0167
     26 C          22.4755   30.3312    0.6443 C.ar    1  UNL1        0.0341
     27 C          22.2736   31.1477   -0.5977 C.ar    1  UNL1        0.1538
     28 C          23.3791   31.2673   -1.6046 C.ar    1  UNL1        0.1037
     29 N          23.3590   31.7723   -2.4490 N.pl3   1  UNL1       -0.3529
     30 C          24.6864   30.5704   -1.3694 C.ar    1  UNL1        0.1556
     31 F          25.7919   30.6899   -2.3762 F       1  UNL1       -0.2028
     32 C          24.8882   29.7539   -0.1274 C.ar    1  UNL1        0.0268
     33 H          22.5491   32.2695   -2.7060 H       1  UNL1        0.1425
     34 H          24.1488   31.7803   -3.0367 H       1  UNL1        0.1425
     35 O          20.9664   31.8446   -0.8329 O.3     1  UNL1       -0.4621
     36 C          20.5683   33.0039    0.0317 C.3     1  UNL1        0.3551
     37 C          21.5128   34.1525    0.2276 C.3     1  UNL1        0.4428
     38 F          22.4574   35.3012    0.4235 F       1  UNL1       -0.1661
     39 F          21.6728   33.7749    1.6704 F       1  UNL1       -0.1661
     40 F          21.4842   34.4903   -0.6963 F       1  UNL1       -0.1661
     41 C          19.2256   33.0146    0.7003 C.3     1  UNL1        0.4428
     42 F          17.8829   33.0253    1.3690 F       1  UNL1       -0.1661
     43 F          19.3955   31.5695    1.0645 F       1  UNL1       -0.1661
     44 F          19.0558   34.4597    0.3361 F       1  UNL1       -0.1661
@<TRIPOS>UNITY_ATOM_ATTR
10 1
charge 1
@<TRIPOS>BOND
     1     1     2    2
     2     1     3    1
     3     3     4    1
     4     4    24    1
     5    24    25    1
     6    25    26   ar
     7    26    27   ar
     8    27    35    1
     9    35    36    1
    10    36    37    1
    11    37    38    1
    12    37    39    1
    13    37    40    1
    14    36    41    1
    15    41    42    1
    16    41    43    1
    17    41    44    1
    18    27    28   ar
    19    28    29    1
    20    28    30   ar
    21    30    31    1
    22    30    32   ar
    23     4     5    1
    24     5     6    1
    25     5     7    1
    26     7    10    1
    27    10    13    1
    28    13    14    1
    29    14    15   ar
    30    15    16   ar
    31    16    17   ar
    32    17    18   ar
    33    18    19   ar
    34    16    20    1
    35    20    21    1
    36    20    22    1
    37    20    23    1
    38     7     8    1
    39     8     1    1
    40    32    25   ar
    41    19    14   ar
    42    29    33    1
    43    29    34    1
    44     6     9    1
    45    10    11    1
    46    10    12    1
@<TRIPOS>MOLECULE
*****
 44 46 0 0 0
SMALL
GASTEIGER

@<TRIPOS>ATOM
      1 S          24.8589   25.0079    1.4646 S.O     1  UNL1        0.0477
      2 O          25.7675   23.8891    1.0488 O.2     1  UNL1       -0.2557
      3 C          25.3882   26.4081    1.5592 C.3     1  UNL1        0.0949
      4 C          24.4796   27.5269    1.9750 C.3     1  UNL1        0.0504
      5 C          23.0417   27.2453    2.2962 C.3     1  UNL1        0.1616
      6 O          22.1331   28.3640    2.7119 O.3     1  UNL1       -0.3788
      7 C          22.5124   25.8450    2.2015 C.3     1  UNL1        0.0935
      8 C          23.4210   24.7263    1.7857 C.3     1  UNL1        0.1488
      9 H          21.2032   28.1820    2.9196 H       1  UNL1        0.2106
     10 N          21.0745   25.5634    2.5227 N.4     1  UNL1        0.2561
     11 H          20.8145   25.2352    3.4528 H       1  UNL1        0.2038
     12 H          20.0967   25.3719    2.7411 H       1  UNL1        0.2038
     13 C          20.0189   25.7644    1.4761 C.3     1  UNL1        0.1296
     14 C          18.9966   24.6954    1.2270 C.ar    1  UNL1        0.0322
     15 C          19.2142   23.6890    0.1362 C.ar    1  UNL1       -0.0029
     16 C          18.1919   22.6201   -0.1129 C.ar    1  UNL1       -0.0229
     17 C          16.9519   22.5575    0.7288 C.ar    1  UNL1       -0.0043
     18 C          16.7342   23.5638    1.8196 C.ar    1  UNL1       -0.0004
     19 C          17.7565   24.6328    2.0686 C.ar    1  UNL1        0.0014
     20 C          18.4095   21.6136   -1.2037 C.3     1  UNL1        0.0189
     21 C          18.4089   22.7160   -2.2209 C.3     1  UNL1        0.0044
     22 C          18.4101   20.5112   -0.1866 C.3     1  UNL1        0.0044
     23 C          18.6271   20.6073   -2.2945 C.3     1  UNL1        0.0044
     24 C          25.0089   28.9272    2.0696 C.3     1  UNL1        0.0301
     25 C          24.9327   29.8397    0.8815 C.ar    1  UNL1       -0.0167
     26 C          23.6263   30.4734    0.5050 C.ar    1  UNL1        0.0341
     27 C          23.5501   31.3858   -0.6831 C.ar    1  UNL1        0.1538
     28 C          24.7804   31.6645   -1.4948 C.ar    1  UNL1        0.1037
     29 N          24.8479   32.2423   -2.2886 N.pl3   1  UNL1       -0.3529
     30 C          26.0868   31.0308   -1.1183 C.ar    1  UNL1        0.1556
     31 F          27.3171   31.3095   -1.9300 F       1  UNL1       -0.2028
     32 C          26.1630   30.1184    0.0698 C.ar    1  UNL1        0.0268
     33 H          24.0501   32.7102   -2.6262 H       1  UNL1        0.1425
     34 H          25.7132   32.3525   -2.7451 H       1  UNL1        0.1425
     35 O          22.2438   32.0196   -1.0596 O.3     1  UNL1       -0.4621
     36 C          21.6312   33.0605   -0.1700 C.3     1  UNL1        0.3551
     37 C          22.4171   34.2810    0.2076 C.3     1  UNL1        0.4428
     38 F          23.2029   35.5016    0.5853 F       1  UNL1       -0.1661
     39 F          22.5949   34.6155   -1.2437 F       1  UNL1       -0.1661
     40 F          22.3640   34.1607    1.1830 F       1  UNL1       -0.1661
     41 C          20.2328   32.8808    0.3418 C.3     1  UNL1        0.4428
     42 F          18.8343   32.7011    0.8538 F       1  UNL1       -0.1661
     43 F          19.7725   34.0229   -0.5147 F       1  UNL1       -0.1661
     44 F          20.6930   31.7387    1.1984 F       1  UNL1       -0.1661
@<TRIPOS>UNITY_ATOM_ATTR
10 1
charge 1
@<TRIPOS>BOND
     1     1     2    2
     2     1     3    1
     3     3     4    1
     4     4    24    1
     5    24    25    1
     6    25    26   ar
     7    26    27   ar
     8    27    35    1
     9    35    36    1
    10    36    37    1
    11    37    38    1
    12    37    39    1
    13    37    40    1
    14    36    41    1
    15    41    42    1
    16    41    43    1
    17    41    44    1
    18    27    28   ar
    19    28    29    1
    20    28    30   ar
    21    30    31    1
    22    30    32   ar
    23     4     5    1
    24     5     6    1
    25     5     7    1
    26     7    10    1
    27    10    13    1
    28    13    14    1
    29    14    15   ar
    30    15    16   ar
    31    16    17   ar
    32    17    18   ar
    33    18    19   ar
    34    16    20    1
    35    20    21    1
    36    20    22    1
    37    20    23    1
    38     7     8    1
    39     8     1    1
    40    32    25   ar
    41    19    14   ar
    42    29    33    1
    43    29    34    1
    44     6     9    1
    45    10    11    1
    46    10    12    1
@<TRIPOS>MOLECULE
*****
 44 46 0 0 0
SMALL
GASTEIGER

@<TRIPOS>ATOM
      1 S          25.1886   19.7775   -2.7881 S.O     1  UNL1        0.0477
      2 O          25.9124   19.4581   -4.0625 O.2     1  UNL1       -0.2557
      3 C          23.9954   18.9656   -2.3795 C.3     1  UNL1        0.0949
      4 C          23.2716   19.2851   -1.1051 C.3     1  UNL1        0.0504
      5 C          23.7410   20.4163   -0.2393 C.3     1  UNL1        0.1616
      6 O          23.0173   20.7357    1.0351 O.3     1  UNL1       -0.3788
      7 C          24.9343   21.2282   -0.6478 C.3     1  UNL1        0.0935
      8 C          25.6581   20.9088   -1.9222 C.3     1  UNL1        0.1488
      9 H          23.3209   21.4673    1.5951 H       1  UNL1        0.2106
     10 N          25.4039   22.3595    0.2181 N.4     1  UNL1        0.2561
     11 H          25.5690   22.2058    1.2129 H       1  UNL1        0.2038
     12 H          25.7232   23.1288    0.8069 H       1  UNL1        0.2038
     13 C          25.6306   23.7167   -0.3789 C.3     1  UNL1        0.1296
     14 C          25.5679   24.9382    0.4896 C.ar    1  UNL1        0.0322
     15 C          24.2440   25.5733    0.7962 C.ar    1  UNL1       -0.0029
     16 C          24.1813   26.7946    1.6646 C.ar    1  UNL1       -0.0229
     17 C          25.4425   27.3809    2.2266 C.ar    1  UNL1       -0.0043
     18 C          26.7663   26.7458    1.9201 C.ar    1  UNL1       -0.0004
     19 C          26.8290   25.5244    1.0516 C.ar    1  UNL1        0.0014
     20 C          22.8574   27.4298    1.9712 C.3     1  UNL1        0.0189
     21 C          22.2664   26.0749    2.2257 C.3     1  UNL1        0.0044
     22 C          23.4484   28.7847    1.7167 C.3     1  UNL1        0.0044
     23 C          21.5335   28.0649    2.2778 C.3     1  UNL1        0.0044
     24 C          22.0782   18.4731   -0.6966 C.3     1  UNL1        0.0301
     25 C          20.7068   18.8729   -1.1543 C.ar    1  UNL1       -0.0167
     26 C          20.2488   20.2929   -0.9995 C.ar    1  UNL1        0.0341
     27 C          18.8774   20.6926   -1.4572 C.ar    1  UNL1        0.1538
     28 C          17.9640   19.6724   -2.0697 C.ar    1  UNL1        0.1037
     29 N          17.0500   19.8201   -2.4031 N.pl3   1  UNL1       -0.3529
     30 C          18.4221   18.2525   -2.2244 C.ar    1  UNL1        0.1556
     31 F          17.5088   17.2323   -2.8369 F       1  UNL1       -0.2028
     32 C          19.7935   17.8528   -1.7667 C.ar    1  UNL1        0.0268
     33 H          16.6461   20.7165   -2.3517 H       1  UNL1        0.1425
     34 H          16.5395   19.0715   -2.7881 H       1  UNL1        0.1425
     35 O          18.4193   22.1125   -1.3025 O.3     1  UNL1       -0.4621
     36 C          18.2782   22.7102    0.0661 C.3     1  UNL1        0.3551
     37 C          18.5491   24.1701    0.2786 C.3     1  UNL1        0.4428
     38 F          18.8202   25.6301    0.4910 F       1  UNL1       -0.1661
     39 F          17.5482   24.1933    1.3954 F       1  UNL1       -0.1661
     40 F          19.2227   24.2717   -0.4318 F       1  UNL1       -0.1661
     41 C          17.8661   21.8479    1.2222 C.3     1  UNL1        0.4428
     42 F          17.4540   20.9856    2.3784 F       1  UNL1       -0.1661
     43 F          16.4966   21.7046    0.6271 F       1  UNL1       -0.1661
     44 F          19.2355   21.9912    1.8172 F       1  UNL1       -0.1661
@<TRIPOS>UNITY_ATOM_ATTR
10 1
charge 1
@<TRIPOS>BOND
     1     1     2    2
     2     1     3    1
     3     3     4    1
     4     4    24    1
     5    24    25    1
     6    25    26   ar
     7    26    27   ar
     8    27    35    1
     9    35    36    1
    10    36    37    1
    11    37    38    1
    12    37    39    1
    13    37    40    1
    14    36    41    1
    15    41    42    1
    16    41    43    1
    17    41    44    1
    18    27    28   ar
    19    28    29    1
    20    28    30   ar
    21    30    31    1
    22    30    32   ar
    23     4     5    1
    24     5     6    1
    25     5     7    1
    26     7    10    1
    27    10    13    1
    28    13    14    1
    29    14    15   ar
    30    15    16   ar
    31    16    17   ar
    32    17    18   ar
    33    18    19   ar
    34    16    20    1
    35    20    21    1
    36    20    22    1
    37    20    23    1
    38     7     8    1
    39     8     1    1
    40    32    25   ar
    41    19    14   ar
    42    29    33    1
    43    29    34    1
    44     6     9    1
    45    10    11    1
    46    10    12    1
@<TRIPOS>MOLECULE
*****
 44 46 0 0 0
SMALL
GASTEIGER

@<TRIPOS>ATOM
      1 S          24.4964   18.1523    1.7596 S.O     1  UNL1        0.0477
      2 O          25.5670   19.1992    1.8479 O.2     1  UNL1       -0.2557
      3 C          23.0519   18.5561    1.7459 C.3     1  UNL1        0.0949
      4 C          21.9812   17.5092    1.6576 C.3     1  UNL1        0.0504
      5 C          22.3551   16.0585    1.5830 C.3     1  UNL1        0.1616
      6 O          21.2845   15.0117    1.4947 O.3     1  UNL1       -0.3788
      7 C          23.7996   15.6547    1.5966 C.3     1  UNL1        0.0935
      8 C          24.8703   16.7016    1.6849 C.3     1  UNL1        0.1488
      9 H          21.5263   14.0735    1.4464 H       1  UNL1        0.2106
     10 N          24.1736   14.2039    1.5220 N.4     1  UNL1        0.2561
     11 H          24.3171   13.7603    0.6148 H       1  UNL1        0.2038
     12 H          24.4279   13.2174    1.4712 H       1  UNL1        0.2038
     13 C          24.3364   13.4056    2.7814 C.3     1  UNL1        0.1296
     14 C          23.5596   12.1364    2.9706 C.ar    1  UNL1        0.0322
     15 C          22.1813   12.0075    2.3932 C.ar    1  UNL1       -0.0029
     16 C          21.4046   10.7384    2.5824 C.ar    1  UNL1       -0.0229
     17 C          22.0062    9.5981    3.3491 C.ar    1  UNL1       -0.0043
     18 C          23.3845    9.7270    3.9266 C.ar    1  UNL1       -0.0004
     19 C          24.1613   10.9961    3.7373 C.ar    1  UNL1        0.0014
     20 C          20.0261   10.6094    2.0050 C.3     1  UNL1        0.0189
     21 C          20.4324    9.3389    1.3190 C.3     1  UNL1        0.0044
     22 C          19.6198   11.8800    2.6910 C.3     1  UNL1        0.0044
     23 C          18.6478   10.4805    1.4275 C.3     1  UNL1        0.0044
     24 C          20.5367   17.9132    1.6440 C.3     1  UNL1        0.0301
     25 C          20.0060   18.7627    0.5275 C.ar    1  UNL1       -0.0167
     26 C          20.1708   20.2529    0.5754 C.ar    1  UNL1        0.0341
     27 C          19.6402   21.1025   -0.5411 C.ar    1  UNL1        0.1538
     28 C          18.9446   20.4619   -1.7055 C.ar    1  UNL1        0.1037
     29 N          18.5593   20.9168   -2.4886 N.pl3   1  UNL1       -0.3529
     30 C          18.7798   18.9718   -1.7535 C.ar    1  UNL1        0.1556
     31 F          18.0842   18.3312   -2.9179 F       1  UNL1       -0.2028
     32 C          19.3105   18.1222   -0.6370 C.ar    1  UNL1        0.0268
     33 H          18.6101   21.8972   -2.5626 H       1  UNL1        0.1425
     34 H          18.1231   20.3915   -3.1978 H       1  UNL1        0.1425
     35 O          19.8050   22.5926   -0.4932 O.3     1  UNL1       -0.4621
     36 C          19.1663   23.3828    0.6104 C.3     1  UNL1        0.3551
     37 C          19.9718   24.3925    1.3730 C.3     1  UNL1        0.4428
     38 F          20.7773   25.4022    2.1357 F       1  UNL1       -0.1661
     39 F          18.9186   25.4285    1.1136 F       1  UNL1       -0.1661
     40 F          20.7220   23.7985    1.6029 F       1  UNL1       -0.1661
     41 C          17.7222   23.1632    0.9512 C.3     1  UNL1        0.4428
     42 F          16.2780   22.9436    1.2920 F       1  UNL1       -0.1661
     43 F          18.0867   23.0122    2.3983 F       1  UNL1       -0.1661
     44 F          17.3577   23.3143   -0.4959 F       1  UNL1       -0.1661
@<TRIPOS>UNITY_ATOM_ATTR
10 1
charge 1
@<TRIPOS>BOND
     1     1     2    2
     2     1     3    1
     3     3     4    1
     4     4    24    1
     5    24    25    1
     6    25    26   ar
     7    26    27   ar
     8    27    35    1
     9    35    36    1
    10    36    37    1
    11    37    38    1
    12    37    39    1
    13    37    40    1
    14    36    41    1
    15    41    42    1
    16    41    43    1
    17    41    44    1
    18    27    28   ar
    19    28    29    1
    20    28    30   ar
    21    30    31    1
    22    30    32   ar
    23     4     5    1
    24     5     6    1
    25     5     7    1
    26     7    10    1
    27    10    13    1
    28    13    14    1
    29    14    15   ar
    30    15    16   ar
    31    16    17   ar
    32    17    18   ar
    33    18    19   ar
    34    16    20    1
    35    20    21    1
    36    20    22    1
    37    20    23    1
    38     7     8    1
    39     8     1    1
    40    32    25   ar
    41    19    14   ar
    42    29    33    1
    43    29    34    1
    44     6     9    1
    45    10    11    1
    46    10    12    1
@<TRIPOS>MOLECULE
*****
 44 46 0 0 0
SMALL
GASTEIGER

@<TRIPOS>ATOM
      1 S          26.9496   26.4530    1.0671 S.O     1  UNL1        0.0477
      2 O          28.2305   25.7647    0.6992 O.2     1  UNL1       -0.2557
      3 C          26.7823   27.9193    0.7989 C.3     1  UNL1        0.0949
      4 C          25.5013   28.6077    1.1668 C.3     1  UNL1        0.0504
      5 C          24.3877   27.8298    1.8030 C.3     1  UNL1        0.1616
      6 O          23.1068   28.5182    2.1709 O.3     1  UNL1       -0.3788
      7 C          24.5551   26.3635    2.0712 C.3     1  UNL1        0.0935
      8 C          25.8360   25.6751    1.7033 C.3     1  UNL1        0.1488
      9 H          22.3867   28.0151    2.5822 H       1  UNL1        0.2106
     10 N          23.4414   25.5855    2.7073 N.4     1  UNL1        0.2561
     11 H          23.2094   25.7370    3.6890 H       1  UNL1        0.2038
     12 H          22.6842   25.0565    3.1399 H       1  UNL1        0.2038
     13 C          22.6690   24.5849    1.8999 C.3     1  UNL1        0.1296
     14 C          21.1811   24.7186    1.7642 C.ar    1  UNL1        0.0322
     15 C          20.3509   23.5239    1.3989 C.ar    1  UNL1       -0.0029
     16 C          18.8631   23.6576    1.2633 C.ar    1  UNL1       -0.0229
     17 C          18.2054   24.9860    1.4930 C.ar    1  UNL1       -0.0043
     18 C          19.0356   26.1807    1.8583 C.ar    1  UNL1       -0.0004
     19 C          20.5234   26.0470    1.9939 C.ar    1  UNL1        0.0014
     20 C          18.0328   22.4629    0.8980 C.3     1  UNL1        0.0189
     21 C          19.2527   21.7824    0.3514 C.3     1  UNL1        0.0044
     22 C          16.8130   23.1433    1.4447 C.3     1  UNL1        0.0044
     23 C          17.2027   21.2682    0.5327 C.3     1  UNL1        0.0044
     24 C          25.3341   30.0741    0.8986 C.3     1  UNL1        0.0301
     25 C          24.8210   30.5393   -0.4319 C.ar    1  UNL1       -0.0167
     26 C          24.0075   31.7963   -0.5242 C.ar    1  UNL1        0.0341
     27 C          23.4945   32.2616   -1.8547 C.ar    1  UNL1        0.1538
     28 C          23.7948   31.4699   -3.0929 C.ar    1  UNL1        0.1037
     29 N          23.5121   31.6783   -4.0123 N.pl3   1  UNL1       -0.3529
     30 C          24.6082   30.2130   -3.0006 C.ar    1  UNL1        0.1556
     31 F          24.9086   29.4213   -4.2388 F       1  UNL1       -0.2028
     32 C          25.1213   29.7477   -1.6701 C.ar    1  UNL1        0.0268
     33 H          22.9724   32.4821   -4.1910 H       1  UNL1        0.1425
     34 H          23.7690   31.0831   -4.7532 H       1  UNL1        0.1425
     35 O          22.6811   33.5185   -1.9471 O.3     1  UNL1       -0.4621
     36 C          22.2255   34.2106   -0.6967 C.3     1  UNL1        0.3551
     37 C          22.9548   35.4250   -0.2034 C.3     1  UNL1        0.4428
     38 F          23.6842   36.6394    0.2898 F       1  UNL1       -0.1661
     39 F          21.7052   36.2395   -0.3610 F       1  UNL1       -0.1661
     40 F          23.8270   34.9916   -0.0614 F       1  UNL1       -0.1661
     41 C          21.0406   33.6883    0.0604 C.3     1  UNL1        0.4428
     42 F          19.8557   33.1660    0.8176 F       1  UNL1       -0.1661
     43 F          21.8346   33.7311    1.3324 F       1  UNL1       -0.1661
     44 F          20.2467   33.6456   -1.2115 F       1  UNL1       -0.1661
@<TRIPOS>UNITY_ATOM_ATTR
10 1
charge 1
@<TRIPOS>BOND
     1     1     2    2
     2     1     3    1
     3     3     4    1
     4     4    24    1
     5    24    25    1
     6    25    26   ar
     7    26    27   ar
     8    27    35    1
     9    35    36    1
    10    36    37    1
    11    37    38    1
    12    37    39    1
    13    37    40    1
    14    36    41    1
    15    41    42    1
    16    41    43    1
    17    41    44    1
    18    27    28   ar
    19    28    29    1
    20    28    30   ar
    21    30    31    1
    22    30    32   ar
    23     4     5    1
    24     5     6    1
    25     5     7    1
    26     7    10    1
    27    10    13    1
    28    13    14    1
    29    14    15   ar
    30    15    16   ar
    31    16    17   ar
    32    17    18   ar
    33    18    19   ar
    34    16    20    1
    35    20    21    1
    36    20    22    1
    37    20    23    1
    38     7     8    1
    39     8     1    1
    40    32    25   ar
    41    19    14   ar
    42    29    33    1
    43    29    34    1
    44     6     9    1
    45    10    11    1
    46    10    12    1
@<TRIPOS>MOLECULE
*****
 44 46 0 0 0
SMALL
GASTEIGER

@<TRIPOS>ATOM
      1 S          26.7599   25.7140   -1.0069 S.O     1  UNL1        0.0477
      2 O          27.3750   26.9745   -1.5387 O.2     1  UNL1       -0.2557
      3 C          25.9619   25.7465    0.2628 C.3     1  UNL1        0.0949
      4 C          25.3468   24.4860    0.7945 C.3     1  UNL1        0.0504
      5 C          25.5296   23.1930    0.0565 C.3     1  UNL1        0.1616
      6 O          24.9145   21.9325    0.5883 O.3     1  UNL1       -0.3788
      7 C          26.3275   23.1605   -1.2132 C.3     1  UNL1        0.0935
      8 C          26.9426   24.4210   -1.7449 C.3     1  UNL1        0.1488
      9 H          25.0327   21.0963    0.1110 H       1  UNL1        0.2106
     10 N          26.5103   21.8674   -1.9513 N.4     1  UNL1        0.2561
     11 H          27.4119   21.3909   -1.9297 H       1  UNL1        0.2038
     12 H          26.6346   20.9882   -2.4531 H       1  UNL1        0.2038
     13 C          25.3673   21.2751   -2.7210 C.3     1  UNL1        0.1296
     14 C          24.7685   19.9695   -2.2888 C.ar    1  UNL1        0.0322
     15 C          23.5122   19.9552   -1.4694 C.ar    1  UNL1       -0.0029
     16 C          22.9135   18.6496   -1.0372 C.ar    1  UNL1       -0.0229
     17 C          23.5711   17.3582   -1.4244 C.ar    1  UNL1       -0.0043
     18 C          24.8274   17.3725   -2.2438 C.ar    1  UNL1       -0.0004
     19 C          25.4261   18.6781   -2.6760 C.ar    1  UNL1        0.0014
     20 C          21.6571   18.6353   -0.2177 C.3     1  UNL1        0.0189
     21 C          21.9700   17.2407    0.2375 C.3     1  UNL1        0.0044
     22 C          21.3443   20.0298   -0.6730 C.3     1  UNL1        0.0044
     23 C          20.4008   18.6209    0.6017 C.3     1  UNL1        0.0044
     24 C          24.5489   24.5185    2.0643 C.3     1  UNL1        0.0301
     25 C          23.2385   25.2472    2.1082 C.ar    1  UNL1       -0.0167
     26 C          21.9607   24.4825    2.2890 C.ar    1  UNL1        0.0341
     27 C          20.6504   25.2112    2.3328 C.ar    1  UNL1        0.1538
     28 C          20.6178   26.7046    2.1959 C.ar    1  UNL1        0.1037
     29 N          19.8219   27.2834    2.2097 N.pl3   1  UNL1       -0.3529
     30 C          21.8955   27.4693    2.0150 C.ar    1  UNL1        0.1556
     31 F          21.8628   28.9627    1.8781 F       1  UNL1       -0.2028
     32 C          23.2058   26.7406    1.9712 C.ar    1  UNL1        0.0268
     33 H          18.9275   26.8878    2.3232 H       1  UNL1        0.1425
     34 H          19.9201   28.2579    2.1101 H       1  UNL1        0.1425
     35 O          19.3727   24.4466    2.5137 O.3     1  UNL1       -0.4621
     36 C          18.8182   23.6341    1.3812 C.3     1  UNL1        0.3551
     37 C          18.9520   24.1248   -0.0298 C.3     1  UNL1        0.4428
     38 F          19.0858   24.6157   -1.4410 F       1  UNL1       -0.1661
     39 F          19.5685   22.8162   -0.4265 F       1  UNL1       -0.1661
     40 F          18.5612   25.0163    0.1156 F       1  UNL1       -0.1661
     41 C          18.1298   22.3309    1.6599 C.3     1  UNL1        0.4428
     42 F          17.4414   21.0275    1.9386 F       1  UNL1       -0.1661
     43 F          16.8095   22.9550    1.3175 F       1  UNL1       -0.1661
     44 F          19.4501   21.7067    2.0023 F       1  UNL1       -0.1661
@<TRIPOS>UNITY_ATOM_ATTR
10 1
charge 1
@<TRIPOS>BOND
     1     1     2    2
     2     1     3    1
     3     3     4    1
     4     4    24    1
     5    24    25    1
     6    25    26   ar
     7    26    27   ar
     8    27    35    1
     9    35    36    1
    10    36    37    1
    11    37    38    1
    12    37    39    1
    13    37    40    1
    14    36    41    1
    15    41    42    1
    16    41    43    1
    17    41    44    1
    18    27    28   ar
    19    28    29    1
    20    28    30   ar
    21    30    31    1
    22    30    32   ar
    23     4     5    1
    24     5     6    1
    25     5     7    1
    26     7    10    1
    27    10    13    1
    28    13    14    1
    29    14    15   ar
    30    15    16   ar
    31    16    17   ar
    32    17    18   ar
    33    18    19   ar
    34    16    20    1
    35    20    21    1
    36    20    22    1
    37    20    23    1
    38     7     8    1
    39     8     1    1
    40    32    25   ar
    41    19    14   ar
    42    29    33    1
    43    29    34    1
    44     6     9    1
    45    10    11    1
    46    10    12    1
@<TRIPOS>MOLECULE
*****
 44 46 0 0 0
SMALL
GASTEIGER

@<TRIPOS>ATOM
      1 S          27.2689   28.9350    0.4849 S.O     1  UNL1        0.0477
      2 O          28.2840   29.6968    1.2844 O.2     1  UNL1       -0.2557
      3 C          26.6900   29.5371   -0.7610 C.3     1  UNL1        0.0949
      4 C          25.6749   28.7753   -1.5605 C.3     1  UNL1        0.0504
      5 C          25.2386   27.4114   -1.1141 C.3     1  UNL1        0.1616
      6 O          24.2235   26.6496   -1.9136 O.3     1  UNL1       -0.3788
      7 C          25.8174   26.8093    0.1319 C.3     1  UNL1        0.0935
      8 C          26.8325   27.5711    0.9314 C.3     1  UNL1        0.1488
      9 H          23.9414   25.7676   -1.6249 H       1  UNL1        0.2106
     10 N          25.3811   25.4453    0.5784 N.4     1  UNL1        0.2561
     11 H          24.4367   25.3039    0.9366 H       1  UNL1        0.2038
     12 H          25.0845   24.5179    0.8820 H       1  UNL1        0.2038
     13 C          26.3338   24.2895    0.4980 C.3     1  UNL1        0.1296
     14 C          26.2262   23.3059   -0.6295 C.ar    1  UNL1        0.0322
     15 C          25.3777   22.0786   -0.4756 C.ar    1  UNL1       -0.0029
     16 C          25.2701   21.0951   -1.6030 C.ar    1  UNL1       -0.0229
     17 C          26.0111   21.3389   -2.8843 C.ar    1  UNL1       -0.0043
     18 C          26.8596   22.5662   -3.0381 C.ar    1  UNL1       -0.0004
     19 C          26.9671   23.5497   -1.9107 C.ar    1  UNL1        0.0014
     20 C          24.4216   19.8677   -1.4492 C.3     1  UNL1        0.0189
     21 C          24.2719   20.1548    0.0154 C.3     1  UNL1        0.0044
     22 C          24.5713   19.5806   -2.9138 C.3     1  UNL1        0.0044
     23 C          23.5731   18.6404   -1.2954 C.3     1  UNL1        0.0044
     24 C          25.0961   29.3775   -2.8065 C.3     1  UNL1        0.0301
     25 C          24.3769   30.6921   -2.7399 C.ar    1  UNL1       -0.0167
     26 C          23.8758   31.2071   -1.4231 C.ar    1  UNL1        0.0341
     27 C          23.1566   32.5217   -1.3566 C.ar    1  UNL1        0.1538
     28 C          22.9384   33.3214   -2.6068 C.ar    1  UNL1        0.1037
     29 N          22.4831   34.1906   -2.6819 N.pl3   1  UNL1       -0.3529
     30 C          23.4394   32.8064   -3.9235 C.ar    1  UNL1        0.1556
     31 F          23.2212   33.6061   -5.1737 F       1  UNL1       -0.2028
     32 C          24.1586   31.4918   -3.9901 C.ar    1  UNL1        0.0268
     33 H          22.1134   34.6237   -1.8787 H       1  UNL1        0.1425
     34 H          22.3972   34.6271   -3.5602 H       1  UNL1        0.1425
     35 O          22.6556   33.0367   -0.0399 O.3     1  UNL1       -0.4621
     36 C          21.4274   32.4396    0.5807 C.3     1  UNL1        0.3551
     37 C          21.4933   31.0842    1.2199 C.3     1  UNL1        0.4428
     38 F          21.5592   29.7288    1.8591 F       1  UNL1       -0.1661
     39 F          22.8418   31.4169    1.7863 F       1  UNL1       -0.1661
     40 F          20.6204   30.7592    0.9022 F       1  UNL1       -0.1661
     41 C          20.1334   33.1979    0.5622 C.3     1  UNL1        0.4428
     42 F          18.8392   33.9562    0.5436 F       1  UNL1       -0.1661
     43 F          20.2221   33.3856    2.0477 F       1  UNL1       -0.1661
     44 F          20.0446   33.0101   -0.9233 F       1  UNL1       -0.1661
@<TRIPOS>UNITY_ATOM_ATTR
10 1
charge 1
@<TRIPOS>BOND
     1     1     2    2
     2     1     3    1
     3     3     4    1
     4     4    24    1
     5    24    25    1
     6    25    26   ar
     7    26    27   ar
     8    27    35    1
     9    35    36    1
    10    36    37    1
    11    37    38    1
    12    37    39    1
    13    37    40    1
    14    36    41    1
    15    41    42    1
    16    41    43    1
    17    41    44    1
    18    27    28   ar
    19    28    29    1
    20    28    30   ar
    21    30    31    1
    22    30    32   ar
    23     4     5    1
    24     5     6    1
    25     5     7    1
    26     7    10    1
    27    10    13    1
    28    13    14    1
    29    14    15   ar
    30    15    16   ar
    31    16    17   ar
    32    17    18   ar
    33    18    19   ar
    34    16    20    1
    35    20    21    1
    36    20    22    1
    37    20    23    1
    38     7     8    1
    39     8     1    1
    40    32    25   ar
    41    19    14   ar
    42    29    33    1
    43    29    34    1
    44     6     9    1
    45    10    11    1
    46    10    12    1
@<TRIPOS>MOLECULE
*****
 44 46 0 0 0
SMALL
GASTEIGER

@<TRIPOS>ATOM
      1 S          26.9561   28.3128    0.8640 S.O     1  UNL1        0.0477
      2 O          27.9436   27.9440    1.9311 O.2     1  UNL1       -0.2557
      3 C          25.7262   27.4789    0.6597 C.3     1  UNL1        0.0949
      4 C          24.7386   27.8478   -0.4074 C.3     1  UNL1        0.0504
      5 C          24.9810   29.0506   -1.2702 C.3     1  UNL1        0.1616
      6 O          23.9934   29.4195   -2.3373 O.3     1  UNL1       -0.3788
      7 C          26.2109   29.8846   -1.0659 C.3     1  UNL1        0.0935
      8 C          27.1984   29.5157    0.0012 C.3     1  UNL1        0.1488
      9 H          24.1502   30.1974   -2.8952 H       1  UNL1        0.2106
     10 N          26.4533   31.0875   -1.9287 N.4     1  UNL1        0.2561
     11 H          26.9883   30.9962   -2.7923 H       1  UNL1        0.2038
     12 H          26.6182   31.9054   -2.5153 H       1  UNL1        0.2038
     13 C          25.9090   32.4246   -1.5214 C.3     1  UNL1        0.1296
     14 C          24.4770   32.7695   -1.8052 C.ar    1  UNL1        0.0322
     15 C          23.4113   32.4288   -0.8061 C.ar    1  UNL1       -0.0029
     16 C          21.9794   32.7738   -1.0900 C.ar    1  UNL1       -0.0229
     17 C          21.6132   33.4594   -2.3729 C.ar    1  UNL1       -0.0043
     18 C          22.6789   33.8001   -3.3719 C.ar    1  UNL1       -0.0004
     19 C          24.1108   33.4551   -3.0881 C.ar    1  UNL1        0.0014
     20 C          20.9136   32.4331   -0.0909 C.3     1  UNL1        0.0189
     21 C          21.7082   31.2396    0.3498 C.3     1  UNL1        0.0044
     22 C          20.1190   33.6265   -0.5315 C.3     1  UNL1        0.0044
     23 C          19.8479   32.0924    0.9081 C.3     1  UNL1        0.0044
     24 C          23.5086   27.0138   -0.6117 C.3     1  UNL1        0.0301
     25 C          22.6860   26.5890    0.5685 C.ar    1  UNL1       -0.0167
     26 C          21.8234   25.3650    0.4799 C.ar    1  UNL1        0.0341
     27 C          21.0007   24.9403    1.6601 C.ar    1  UNL1        0.1538
     28 C          21.0406   25.7395    2.9288 C.ar    1  UNL1        0.1037
     29 N          20.5466   25.5563    3.7600 N.pl3   1  UNL1       -0.3529
     30 C          21.9032   26.9635    3.0173 C.ar    1  UNL1        0.1556
     31 F          21.9431   27.7628    4.2861 F       1  UNL1       -0.2028
     32 C          22.7259   27.3882    1.8371 C.ar    1  UNL1        0.0268
     33 H          19.9485   24.7763    3.8153 H       1  UNL1        0.1425
     34 H          20.6504   26.1531    4.5361 H       1  UNL1        0.1425
     35 O          20.1381   23.7163    1.5715 O.3     1  UNL1       -0.4621
     36 C          18.8534   23.7585    0.7984 C.3     1  UNL1        0.3551
     37 C          17.5443   23.8564    1.5239 C.3     1  UNL1        0.4428
     38 F          16.2351   23.9543    2.2495 F       1  UNL1       -0.1661
     39 F          16.9365   22.8821    0.5588 F       1  UNL1       -0.1661
     40 F          17.8354   24.4987    2.2104 F       1  UNL1       -0.1661
     41 C          18.8779   23.7027   -0.7004 C.3     1  UNL1        0.4428
     42 F          18.9023   23.6470   -2.1992 F       1  UNL1       -0.1661
     43 F          19.4289   22.3090   -0.6395 F       1  UNL1       -0.1661
     44 F          18.3269   25.0965   -0.7612 F       1  UNL1       -0.1661
@<TRIPOS>UNITY_ATOM_ATTR
10 1
charge 1
@<TRIPOS>BOND
     1     1     2    2
     2     1     3    1
     3     3     4    1
     4     4    24    1
     5    24    25    1
     6    25    26   ar
     7    26    27   ar
     8    27    35    1
     9    35    36    1
    10    36    37    1
    11    37    38    1
    12    37    39    1
    13    37    40    1
    14    36    41    1
    15    41    42    1
    16    41    43    1
    17    41    44    1
    18    27    28   ar
    19    28    29    1
    20    28    30   ar
    21    30    31    1
    22    30    32   ar
    23     4     5    1
    24     5     6    1
    25     5     7    1
    26     7    10    1
    27    10    13    1
    28    13    14    1
    29    14    15   ar
    30    15    16   ar
    31    16    17   ar
    32    17    18   ar
    33    18    19   ar
    34    16    20    1
    35    20    21    1
    36    20    22    1
    37    20    23    1
    38     7     8    1
    39     8     1    1
    40    32    25   ar
    41    19    14   ar
    42    29    33    1
    43    29    34    1
    44     6     9    1
    45    10    11    1
    46    10    12    1
@<TRIPOS>MOLECULE
*****
 50 52 0 0 0
SMALL
GASTEIGER

@<TRIPOS>ATOM
      1 C          24.3484   25.3668    1.4707 C.3     1  UNL1        0.1086
      2 C          25.5079   27.6732    1.7644 C.2     1  UNL1        0.2422
      3 O          26.0390   27.2365    3.0975 O.2     1  UNL1       -0.2733
      4 N          24.6627   26.7385    0.9510 N.am    1  UNL1       -0.3017
      5 H          24.3141   27.0251    0.0760 H       1  UNL1        0.1495
      6 C          25.8221   29.0448    1.2446 C.3     1  UNL1        0.1726
      7 N          24.7571   30.1009    1.2233 N.am    1  UNL1       -0.2934
      8 C          23.7096   30.0881    0.1498 C.2     1  UNL1        0.2477
      9 O          23.7269   29.0192   -0.9023 O.2     1  UNL1       -0.2701
     10 H          24.7457   30.8025    1.9139 H       1  UNL1        0.1502
     11 C          22.6446   31.1443    0.1285 C.ar    1  UNL1        0.0725
     12 C          22.3836   31.9209   -1.1279 C.ar    1  UNL1        0.0077
     13 C          21.3186   32.9770   -1.1492 C.ar    1  UNL1        0.0208
     14 C          20.5147   33.2565    0.0860 C.ar    1  UNL1        0.0989
     15 N          20.7757   32.4798    1.3424 N.ar    1  UNL1       -0.2422
     16 C          21.8406   31.4237    1.3637 C.ar    1  UNL1        0.1034
     17 C          27.2013   29.3602    0.7462 C.3     1  UNL1        0.1796
     18 S          27.3821   30.2522   -0.4461 S.O2    1  UNL1       -0.0078
     19 O          27.1364   29.0855   -1.3562 O.2     1  UNL1       -0.1729
     20 O          27.6278   31.4189    0.4641 O.2     1  UNL1       -0.1729
     21 C          27.5629   31.1442   -1.6383 C.3     1  UNL1        0.1509
     22 C          26.3930   31.4617   -2.5218 C.3     1  UNL1        0.0253
     23 C          26.0349   32.8900   -2.8078 C.3     1  UNL1        0.0018
     24 C          25.5078   33.7653   -1.7097 C.3     1  UNL1        0.0001
     25 C          24.5970   34.9116   -2.0361 C.3     1  UNL1        0.0000
     26 C          22.9783   25.0606    1.9988 C.3     1  UNL1        0.1839
     27 O          22.4495   23.6580    1.9437 O.3     1  UNL1       -0.3775
     28 H          22.9935   22.9490    1.5666 H       1  UNL1        0.2106
     29 C          22.1369   26.1570    2.5819 C.3     1  UNL1        0.1339
     30 N          20.7090   25.8889    2.9550 N.4     1  UNL1        0.2597
     31 H          20.4811   25.5504    3.8898 H       1  UNL1        0.2040
     32 H          19.7381   25.7066    3.2088 H       1  UNL1        0.2040
     33 C          19.6163   26.1186    1.9535 C.3     1  UNL1        0.1298
     34 C          18.8360   24.9562    1.4150 C.ar    1  UNL1        0.0322
     35 C          19.0300   24.5161   -0.0057 C.ar    1  UNL1       -0.0029
     36 C          18.2497   23.3537   -0.5441 C.ar    1  UNL1       -0.0223
     37 C          17.2753   22.6314    0.3382 C.ar    1  UNL1       -0.0043
     38 C          17.0812   23.0714    1.7591 C.ar    1  UNL1       -0.0004
     39 C          17.8615   24.2338    2.2975 C.ar    1  UNL1        0.0014
     40 C          18.4438   22.9137   -1.9649 C.3     1  UNL1        0.0264
     41 C          18.2661   23.8955   -3.0851 C.3     1  UNL1        0.0050
     42 C          25.4043   24.3015    1.4623 C.3     1  UNL1        0.0487
     43 C          25.7691   23.6172    0.1783 C.ar    1  UNL1       -0.0160
     44 C          26.7517   24.2549   -0.7586 C.ar    1  UNL1        0.0256
     45 C          27.1165   23.5706   -2.0426 C.ar    1  UNL1        0.1421
     46 F          28.0991   24.2083   -2.9795 F       1  UNL1       -0.2041
     47 C          26.4986   22.2486   -2.3897 C.ar    1  UNL1        0.0592
     48 C          25.5160   21.6109   -1.4528 C.ar    1  UNL1        0.1421
     49 F          24.8981   20.2888   -1.8000 F       1  UNL1       -0.2041
     50 C          25.1512   22.2952   -0.1688 C.ar    1  UNL1        0.0256
@<TRIPOS>UNITY_ATOM_ATTR
30 1
charge 1
@<TRIPOS>BOND
     1    18    19    2
     2    18    20    2
     3    18    21    1
     4    21    22    1
     5    22    23    1
     6    23    24    1
     7    24    25    1
     8    18    17    1
     9     6    17    1
    10     6     7    1
    11     7     8   am
    12     8     9    2
    13     8    11    1
    14    11    12   ar
    15    12    13   ar
    16    13    14   ar
    17    14    15   ar
    18    15    16   ar
    19     6     2    1
    20     2     3    2
    21     2     4   am
    22     4     1    1
    23     1    26    1
    24    26    27    1
    25    26    29    1
    26    29    30    1
    27    30    33    1
    28    33    34    1
    29    34    35   ar
    30    35    36   ar
    31    36    37   ar
    32    37    38   ar
    33    38    39   ar
    34    36    40    1
    35    40    41    1
    36     1    42    1
    37    42    43    1
    38    43    44   ar
    39    44    45   ar
    40    45    46    1
    41    45    47   ar
    42    47    48   ar
    43    48    49    1
    44    48    50   ar
    45    16    11   ar
    46    39    34   ar
    47    50    43   ar
    48     7    10    1
    49     4     5    1
    50    27    28    1
    51    30    31    1
    52    30    32    1
@<TRIPOS>MOLECULE
*****
 50 52 0 0 0
SMALL
GASTEIGER

@<TRIPOS>ATOM
      1 C          24.3030   25.2222    1.4125 C.3     1  UNL1        0.1086
      2 C          25.5598   27.4873    1.6130 C.2     1  UNL1        0.2422
      3 O          26.2205   27.0093    2.8720 O.2     1  UNL1       -0.2733
      4 N          24.6011   26.5938    0.8833 N.am    1  UNL1       -0.3017
      5 H          24.1675   26.9075    0.0570 H       1  UNL1        0.1495
      6 C          25.8578   28.8587    1.0837 C.3     1  UNL1        0.1726
      7 N          24.8377   29.9508    1.2134 N.am    1  UNL1       -0.2934
      8 C          23.6740   30.0062    0.2685 C.2     1  UNL1        0.2477
      9 O          23.5305   28.9696   -0.8061 O.2     1  UNL1       -0.2701
     10 H          24.9318   30.6311    1.9187 H       1  UNL1        0.1502
     11 C          22.6539   31.0982    0.3982 C.ar    1  UNL1        0.0725
     12 C          21.8015   31.4718   -0.7781 C.ar    1  UNL1        0.0077
     13 C          20.7814   32.5638   -0.6484 C.ar    1  UNL1        0.0208
     14 C          20.6137   33.2822    0.6577 C.ar    1  UNL1        0.0989
     15 N          21.4660   32.9086    1.8340 N.ar    1  UNL1       -0.2422
     16 C          22.4862   31.8166    1.7043 C.ar    1  UNL1        0.1034
     17 C          27.1760   29.1383    0.4247 C.3     1  UNL1        0.1796
     18 S          27.3676   30.3995   -0.3642 S.O2    1  UNL1       -0.0078
     19 O          27.6017   31.1595    0.9076 O.2     1  UNL1       -0.1729
     20 O          27.1335   29.6395   -1.6360 O.2     1  UNL1       -0.1729
     21 C          27.5592   31.6608   -1.1532 C.3     1  UNL1        0.1509
     22 C          26.5825   32.0267   -2.2313 C.3     1  UNL1        0.0253
     23 C          25.1675   32.3739   -1.8751 C.3     1  UNL1        0.0018
     24 C          24.7860   33.8030   -1.6256 C.3     1  UNL1        0.0001
     25 C          23.8170   34.4914   -2.5406 C.3     1  UNL1        0.0000
     26 C          22.9516   24.9176    1.9878 C.3     1  UNL1        0.1839
     27 O          22.3845   23.5332    1.8782 O.3     1  UNL1       -0.3775
     28 H          22.8917   22.8350    1.4354 H       1  UNL1        0.2106
     29 C          22.1673   25.9974    2.6725 C.3     1  UNL1        0.1339
     30 N          20.8135   25.6942    3.2430 N.4     1  UNL1        0.2597
     31 H          20.7295   25.3353    4.1940 H       1  UNL1        0.2040
     32 H          19.8930   25.4880    3.6308 H       1  UNL1        0.2040
     33 C          19.5833   25.9187    2.4147 C.3     1  UNL1        0.1298
     34 C          19.0540   24.8179    1.5441 C.ar    1  UNL1        0.0322
     35 C          18.4626   23.5879    2.1665 C.ar    1  UNL1       -0.0029
     36 C          17.9334   22.4871    1.2959 C.ar    1  UNL1       -0.0223
     37 C          17.9956   22.6161   -0.1972 C.ar    1  UNL1       -0.0043
     38 C          18.5870   23.8461   -0.8198 C.ar    1  UNL1       -0.0004
     39 C          19.1162   24.9470    0.0509 C.ar    1  UNL1        0.0014
     40 C          17.3420   21.2572    1.9183 C.3     1  UNL1        0.0264
     41 C          17.9745   20.6558    3.1384 C.3     1  UNL1        0.0050
     42 C          25.3564   24.1553    1.3666 C.3     1  UNL1        0.0487
     43 C          26.1612   23.9494    0.1177 C.ar    1  UNL1       -0.0160
     44 C          27.4013   24.7598   -0.1176 C.ar    1  UNL1        0.0256
     45 C          28.2061   24.5538   -1.3666 C.ar    1  UNL1        0.1421
     46 F          29.4462   25.3643   -1.6018 F       1  UNL1       -0.2041
     47 C          27.7709   23.5375   -2.3802 C.ar    1  UNL1        0.0592
     48 C          26.5308   22.7270   -2.1449 C.ar    1  UNL1        0.1421
     49 F          26.0956   21.7106   -3.1587 F       1  UNL1       -0.2041
     50 C          25.7260   22.9329   -0.8960 C.ar    1  UNL1        0.0256
@<TRIPOS>UNITY_ATOM_ATTR
30 1
charge 1
@<TRIPOS>BOND
     1    18    19    2
     2    18    20    2
     3    18    21    1
     4    21    22    1
     5    22    23    1
     6    23    24    1
     7    24    25    1
     8    18    17    1
     9     6    17    1
    10     6     7    1
    11     7     8   am
    12     8     9    2
    13     8    11    1
    14    11    12   ar
    15    12    13   ar
    16    13    14   ar
    17    14    15   ar
    18    15    16   ar
    19     6     2    1
    20     2     3    2
    21     2     4   am
    22     4     1    1
    23     1    26    1
    24    26    27    1
    25    26    29    1
    26    29    30    1
    27    30    33    1
    28    33    34    1
    29    34    35   ar
    30    35    36   ar
    31    36    37   ar
    32    37    38   ar
    33    38    39   ar
    34    36    40    1
    35    40    41    1
    36     1    42    1
    37    42    43    1
    38    43    44   ar
    39    44    45   ar
    40    45    46    1
    41    45    47   ar
    42    47    48   ar
    43    48    49    1
    44    48    50   ar
    45    16    11   ar
    46    39    34   ar
    47    50    43   ar
    48     7    10    1
    49     4     5    1
    50    27    28    1
    51    30    31    1
    52    30    32    1
@<TRIPOS>MOLECULE
*****
 50 52 0 0 0
SMALL
GASTEIGER

@<TRIPOS>ATOM
      1 C          23.4763   27.1000    1.5325 C.3     1  UNL1        0.1086
      2 C          25.4569   25.5163    0.9674 C.2     1  UNL1        0.2422
      3 O          25.6655   25.2554    2.4297 O.2     1  UNL1       -0.2733
      4 N          24.3623   26.4385    0.5187 N.am    1  UNL1       -0.3017
      5 H          24.2254   26.6097   -0.4410 H       1  UNL1        0.1495
      6 C          26.3428   24.8549   -0.0463 C.3     1  UNL1        0.1726
      7 N          25.7988   23.7630   -0.9192 N.am    1  UNL1       -0.2934
      8 C          25.6145   22.3814   -0.3650 C.2     1  UNL1        0.2477
      9 O          25.9741   22.0916    1.0622 O.2     1  UNL1       -0.2701
     10 H          25.5627   23.9531   -1.8559 H       1  UNL1        0.1502
     11 C          25.0704   21.2895   -1.2378 C.ar    1  UNL1        0.0725
     12 C          25.7153   20.9944   -2.5596 C.ar    1  UNL1        0.0077
     13 C          25.1713   19.9026   -3.4324 C.ar    1  UNL1        0.0208
     14 C          23.9823   19.1058   -2.9834 C.ar    1  UNL1        0.0989
     15 N          23.3375   19.4008   -1.6617 N.ar    1  UNL1       -0.2422
     16 C          23.8815   20.4927   -0.7889 C.ar    1  UNL1        0.1034
     17 C          27.7728   25.2853   -0.1872 C.3     1  UNL1        0.1796
     18 S          28.4379   25.2495   -1.5312 S.O2    1  UNL1       -0.0078
     19 O          28.0831   26.6911   -1.7452 O.2     1  UNL1       -0.1729
     20 O          28.7927   23.8079   -1.3172 O.2     1  UNL1       -0.1729
     21 C          29.1030   25.2137   -2.8752 C.3     1  UNL1        0.1509
     22 C          29.3198   23.9021   -3.5700 C.3     1  UNL1        0.0253
     23 C          30.4309   23.7561   -4.5670 C.3     1  UNL1        0.0018
     24 C          31.7744   23.2566   -4.1248 C.3     1  UNL1        0.0001
     25 C          32.2839   21.9358   -4.6207 C.3     1  UNL1        0.0000
     26 C          22.4075   26.3076    2.2251 C.3     1  UNL1        0.1839
     27 O          22.7845   25.2022    3.1665 O.3     1  UNL1       -0.3775
     28 H          23.7194   24.9999    3.3273 H       1  UNL1        0.2106
     29 C          20.9618   26.6205    1.9764 C.3     1  UNL1        0.1339
     30 N          19.8949   25.8939    2.7405 N.4     1  UNL1        0.2597
     31 H          20.0853   25.5521    3.6825 H       1  UNL1        0.2040
     32 H          19.1695   25.3998    3.2601 H       1  UNL1        0.2040
     33 C          18.5481   25.6700    2.1194 C.3     1  UNL1        0.1298
     34 C          18.2510   24.3777    1.4181 C.ar    1  UNL1        0.0322
     35 C          18.5413   24.2353   -0.0466 C.ar    1  UNL1       -0.0029
     36 C          18.2443   22.9430   -0.7479 C.ar    1  UNL1       -0.0223
     37 C          17.6570   21.7932    0.0156 C.ar    1  UNL1       -0.0043
     38 C          17.3667   21.9355    1.4804 C.ar    1  UNL1       -0.0004
     39 C          17.6637   23.2278    2.1816 C.ar    1  UNL1        0.0014
     40 C          18.5345   22.8006   -2.2126 C.3     1  UNL1        0.0264
     41 C          18.1667   23.9033   -3.1607 C.3     1  UNL1        0.0050
     42 C          23.6591   28.5537    1.8535 C.3     1  UNL1        0.0487
     43 C          23.0511   29.5998    0.9668 C.ar    1  UNL1       -0.0160
     44 C          23.6435   29.8750   -0.3835 C.ar    1  UNL1        0.0256
     45 C          23.0355   30.9211   -1.2701 C.ar    1  UNL1        0.1421
     46 F          23.6279   31.1964   -2.6204 F       1  UNL1       -0.2041
     47 C          21.8351   31.6919   -0.8064 C.ar    1  UNL1        0.0592
     48 C          21.2427   31.4166    0.5439 C.ar    1  UNL1        0.1421
     49 F          20.0423   32.1874    1.0075 F       1  UNL1       -0.2041
     50 C          21.8507   30.3706    1.4305 C.ar    1  UNL1        0.0256
@<TRIPOS>UNITY_ATOM_ATTR
30 1
charge 1
@<TRIPOS>BOND
     1    18    19    2
     2    18    20    2
     3    18    21    1
     4    21    22    1
     5    22    23    1
     6    23    24    1
     7    24    25    1
     8    18    17    1
     9     6    17    1
    10     6     7    1
    11     7     8   am
    12     8     9    2
    13     8    11    1
    14    11    12   ar
    15    12    13   ar
    16    13    14   ar
    17    14    15   ar
    18    15    16   ar
    19     6     2    1
    20     2     3    2
    21     2     4   am
    22     4     1    1
    23     1    26    1
    24    26    27    1
    25    26    29    1
    26    29    30    1
    27    30    33    1
    28    33    34    1
    29    34    35   ar
    30    35    36   ar
    31    36    37   ar
    32    37    38   ar
    33    38    39   ar
    34    36    40    1
    35    40    41    1
    36     1    42    1
    37    42    43    1
    38    43    44   ar
    39    44    45   ar
    40    45    46    1
    41    45    47   ar
    42    47    48   ar
    43    48    49    1
    44    48    50   ar
    45    16    11   ar
    46    39    34   ar
    47    50    43   ar
    48     7    10    1
    49     4     5    1
    50    27    28    1
    51    30    31    1
    52    30    32    1
@<TRIPOS>MOLECULE
*****
 50 52 0 0 0
SMALL
GASTEIGER

@<TRIPOS>ATOM
      1 C          23.7562   26.4444    1.8306 C.3     1  UNL1        0.1086
      2 C          25.3153   25.4632   -0.0016 C.2     1  UNL1        0.2422
      3 O          24.4969   26.1405   -1.0606 O.2     1  UNL1       -0.2733
      4 N          24.9449   25.6151    1.4440 N.am    1  UNL1       -0.3017
      5 H          25.4820   25.1705    2.1391 H       1  UNL1        0.1495
      6 C          26.5039   24.6340   -0.3881 C.3     1  UNL1        0.1726
      7 N          26.3069   23.3153   -1.0755 N.am    1  UNL1       -0.2934
      8 C          25.3116   22.3304   -0.5376 C.2     1  UNL1        0.2477
      9 O          24.5133   22.6641    0.6876 O.2     1  UNL1       -0.2701
     10 H          26.8309   23.0963   -1.8797 H       1  UNL1        0.1502
     11 C          25.1147   21.0118   -1.2250 C.ar    1  UNL1        0.0725
     12 C          24.3483   19.9175   -0.5429 C.ar    1  UNL1        0.0077
     13 C          24.1514   18.5989   -1.2303 C.ar    1  UNL1        0.0208
     14 C          24.7208   18.3746   -2.5998 C.ar    1  UNL1        0.0989
     15 N          25.4871   19.4689   -3.2819 N.ar    1  UNL1       -0.2422
     16 C          25.6841   20.7874   -2.5945 C.ar    1  UNL1        0.1034
     17 C          27.8896   25.1233   -0.0873 C.3     1  UNL1        0.1796
     18 S          28.9828   24.9487   -1.0993 S.O2    1  UNL1       -0.0078
     19 O          28.0081   25.2377   -2.2021 O.2     1  UNL1       -0.1729
     20 O          29.9576   24.6597    0.0035 O.2     1  UNL1       -0.1729
     21 C          30.0761   24.7741   -2.1113 C.3     1  UNL1        0.1509
     22 C          29.7996   25.0225   -3.5646 C.3     1  UNL1        0.0253
     23 C          30.5766   24.2830   -4.6130 C.3     1  UNL1        0.0018
     24 C          31.6457   23.3118   -4.2085 C.3     1  UNL1        0.0001
     25 C          31.4668   21.8461   -4.4733 C.3     1  UNL1        0.0000
     26 C          22.3936   25.8201    1.8899 C.3     1  UNL1        0.1839
     27 O          22.2319   24.3482    1.6497 O.3     1  UNL1       -0.3775
     28 H          23.0084   23.8002    1.4560 H       1  UNL1        0.2106
     29 C          21.1928   26.6675    2.1895 C.3     1  UNL1        0.1339
     30 N          19.9272   26.0286    2.6795 N.4     1  UNL1        0.2597
     31 H          19.8527   25.7231    3.6498 H       1  UNL1        0.2040
     32 H          19.0667   25.5941    3.0127 H       1  UNL1        0.2040
     33 C          18.7713   25.8389    1.7426 C.3     1  UNL1        0.1298
     34 C          18.6167   24.5484    0.9938 C.ar    1  UNL1        0.0322
     35 C          18.3777   23.2708    1.7425 C.ar    1  UNL1       -0.0029
     36 C          18.2232   21.9803    0.9937 C.ar    1  UNL1       -0.0223
     37 C          18.3076   21.9674   -0.5038 C.ar    1  UNL1       -0.0043
     38 C          18.5467   23.2450   -1.2526 C.ar    1  UNL1       -0.0004
     39 C          18.7012   24.5355   -0.5038 C.ar    1  UNL1        0.0014
     40 C          17.9842   20.7027    1.7424 C.3     1  UNL1        0.0264
     41 C          17.7996   20.7289    3.2308 C.3     1  UNL1        0.0050
     42 C          23.9302   27.8978    2.1578 C.3     1  UNL1        0.0487
     43 C          25.1743   28.6189    1.7312 C.ar    1  UNL1       -0.0160
     44 C          26.4343   28.4796    2.5331 C.ar    1  UNL1        0.0256
     45 C          27.6785   29.2008    2.1064 C.ar    1  UNL1        0.1421
     46 F          28.9385   29.0614    2.9083 F       1  UNL1       -0.2041
     47 C          27.6627   30.0611    0.8778 C.ar    1  UNL1        0.0592
     48 C          26.4027   30.2004    0.0759 C.ar    1  UNL1        0.1421
     49 F          26.3870   31.0609   -1.1527 F       1  UNL1       -0.2041
     50 C          25.1586   29.4794    0.5026 C.ar    1  UNL1        0.0256
@<TRIPOS>UNITY_ATOM_ATTR
30 1
charge 1
@<TRIPOS>BOND
     1    18    19    2
     2    18    20    2
     3    18    21    1
     4    21    22    1
     5    22    23    1
     6    23    24    1
     7    24    25    1
     8    18    17    1
     9     6    17    1
    10     6     7    1
    11     7     8   am
    12     8     9    2
    13     8    11    1
    14    11    12   ar
    15    12    13   ar
    16    13    14   ar
    17    14    15   ar
    18    15    16   ar
    19     6     2    1
    20     2     3    2
    21     2     4   am
    22     4     1    1
    23     1    26    1
    24    26    27    1
    25    26    29    1
    26    29    30    1
    27    30    33    1
    28    33    34    1
    29    34    35   ar
    30    35    36   ar
    31    36    37   ar
    32    37    38   ar
    33    38    39   ar
    34    36    40    1
    35    40    41    1
    36     1    42    1
    37    42    43    1
    38    43    44   ar
    39    44    45   ar
    40    45    46    1
    41    45    47   ar
    42    47    48   ar
    43    48    49    1
    44    48    50   ar
    45    16    11   ar
    46    39    34   ar
    47    50    43   ar
    48     7    10    1
    49     4     5    1
    50    27    28    1
    51    30    31    1
    52    30    32    1
@<TRIPOS>MOLECULE
*****
 50 52 0 0 0
SMALL
GASTEIGER

@<TRIPOS>ATOM
      1 C          23.7202   26.5148    1.8168 C.3     1  UNL1        0.1086
      2 C          25.0694   25.6320   -0.2204 C.2     1  UNL1        0.2422
      3 O          24.1384   26.3531   -1.1495 O.2     1  UNL1       -0.2733
      4 N          24.8604   25.7129    1.2627 N.am    1  UNL1       -0.3017
      5 H          25.4714   25.2396    1.8725 H       1  UNL1        0.1495
      6 C          26.2096   24.8301   -0.7744 C.3     1  UNL1        0.1726
      7 N          25.9355   23.6190   -1.6161 N.am    1  UNL1       -0.2934
      8 C          25.7000   22.2895   -0.9629 C.2     1  UNL1        0.2477
      9 O          25.7384   22.1709    0.5319 O.2     1  UNL1       -0.2701
     10 H          25.9103   23.6969   -2.5972 H       1  UNL1        0.1502
     11 C          25.4259   21.0784   -1.8045 C.ar    1  UNL1        0.0725
     12 C          25.7863   21.0798   -3.2605 C.ar    1  UNL1        0.0077
     13 C          25.5123   19.8687   -4.1021 C.ar    1  UNL1        0.0208
     14 C          24.8779   18.6563   -3.4876 C.ar    1  UNL1        0.0989
     15 N          24.5175   18.6549   -2.0316 N.ar    1  UNL1       -0.2422
     16 C          24.7915   19.8660   -1.1900 C.ar    1  UNL1        0.1034
     17 C          27.6238   25.2392   -0.4869 C.3     1  UNL1        0.1796
     18 S          28.6316   25.2853   -1.5969 S.O2    1  UNL1       -0.0078
     19 O          29.0576   23.8851   -1.2682 O.2     1  UNL1       -0.1729
     20 O          28.2057   26.6855   -1.9255 O.2     1  UNL1       -0.1729
     21 C          29.6395   25.3314   -2.7068 C.3     1  UNL1        0.1509
     22 C          30.2240   24.0580   -3.2425 C.3     1  UNL1        0.0253
     23 C          29.9391   23.6374   -4.6538 C.3     1  UNL1        0.0018
     24 C          29.8931   22.1805   -5.0075 C.3     1  UNL1        0.0001
     25 C          28.6471   21.5913   -5.5993 C.3     1  UNL1        0.0000
     26 C          22.3606   25.8946    1.9471 C.3     1  UNL1        0.1839
     27 O          22.1816   24.4239    1.7127 O.3     1  UNL1       -0.3775
     28 H          22.9450   23.8739    1.4768 H       1  UNL1        0.2106
     29 C          21.1801   26.7451    2.3118 C.3     1  UNL1        0.1339
     30 N          19.9046   26.1015    2.7687 N.4     1  UNL1        0.2597
     31 H          19.8218   25.7556    3.7247 H       1  UNL1        0.2040
     32 H          19.0372   25.6639    3.0794 H       1  UNL1        0.2040
     33 C          18.7508   25.9666    1.8198 C.3     1  UNL1        0.1298
     34 C          18.5447   24.6856    1.0670 C.ar    1  UNL1        0.0322
     35 C          18.1090   23.4491    1.7958 C.ar    1  UNL1       -0.0029
     36 C          17.9029   22.1682    1.0430 C.ar    1  UNL1       -0.0223
     37 C          18.1325   22.1238   -0.4386 C.ar    1  UNL1       -0.0043
     38 C          18.5682   23.3603   -1.1675 C.ar    1  UNL1       -0.0004
     39 C          18.7743   24.6413   -0.4147 C.ar    1  UNL1        0.0014
     40 C          17.4673   20.9317    1.7718 C.3     1  UNL1        0.0264
     41 C          17.8959   20.7078    3.1917 C.3     1  UNL1        0.0050
     42 C          23.9396   27.9368    2.2406 C.3     1  UNL1        0.0487
     43 C          23.9894   29.0269    1.2114 C.ar    1  UNL1       -0.0160
     44 C          22.7303   29.7350    0.8073 C.ar    1  UNL1        0.0256
     45 C          22.7802   30.8251   -0.2219 C.ar    1  UNL1        0.1421
     46 F          21.5211   31.5331   -0.6261 F       1  UNL1       -0.2041
     47 C          24.0892   31.2071   -0.8469 C.ar    1  UNL1        0.0592
     48 C          25.3483   30.4991   -0.4428 C.ar    1  UNL1        0.1421
     49 F          26.6573   30.8812   -1.0678 F       1  UNL1       -0.2041
     50 C          25.2984   29.4090    0.5864 C.ar    1  UNL1        0.0256
@<TRIPOS>UNITY_ATOM_ATTR
30 1
charge 1
@<TRIPOS>BOND
     1    18    19    2
     2    18    20    2
     3    18    21    1
     4    21    22    1
     5    22    23    1
     6    23    24    1
     7    24    25    1
     8    18    17    1
     9     6    17    1
    10     6     7    1
    11     7     8   am
    12     8     9    2
    13     8    11    1
    14    11    12   ar
    15    12    13   ar
    16    13    14   ar
    17    14    15   ar
    18    15    16   ar
    19     6     2    1
    20     2     3    2
    21     2     4   am
    22     4     1    1
    23     1    26    1
    24    26    27    1
    25    26    29    1
    26    29    30    1
    27    30    33    1
    28    33    34    1
    29    34    35   ar
    30    35    36   ar
    31    36    37   ar
    32    37    38   ar
    33    38    39   ar
    34    36    40    1
    35    40    41    1
    36     1    42    1
    37    42    43    1
    38    43    44   ar
    39    44    45   ar
    40    45    46    1
    41    45    47   ar
    42    47    48   ar
    43    48    49    1
    44    48    50   ar
    45    16    11   ar
    46    39    34   ar
    47    50    43   ar
    48     7    10    1
    49     4     5    1
    50    27    28    1
    51    30    31    1
    52    30    32    1
@<TRIPOS>MOLECULE
*****
 50 52 0 0 0
SMALL
GASTEIGER

@<TRIPOS>ATOM
      1 C          24.1750   26.6038    1.4086 C.3     1  UNL1        0.1086
      2 C          24.2013   28.2436   -0.6064 C.2     1  UNL1        0.2422
      3 O          24.1353   27.0817   -1.5528 O.2     1  UNL1       -0.2733
      4 N          24.2212   28.0047    0.8742 N.am    1  UNL1       -0.3017
      5 H          24.2646   28.7673    1.4954 H       1  UNL1        0.1495
      6 C          24.2475   29.6444   -1.1407 C.3     1  UNL1        0.1726
      7 N          25.5434   30.2166   -1.6342 N.am    1  UNL1       -0.2934
      8 C          25.9965   29.9457   -3.0382 C.2     1  UNL1        0.2477
      9 O          25.1538   29.1027   -3.9488 O.2     1  UNL1       -0.2701
     10 H          26.0964   30.7699   -1.0365 H       1  UNL1        0.1502
     11 C          27.2924   30.5179   -3.5317 C.ar    1  UNL1        0.0725
     12 C          27.9169   29.9865   -4.7876 C.ar    1  UNL1        0.0077
     13 C          29.2127   30.5587   -5.2810 C.ar    1  UNL1        0.0208
     14 C          29.8839   31.6623   -4.5184 C.ar    1  UNL1        0.0989
     15 N          29.2593   32.1938   -3.2625 N.ar    1  UNL1       -0.2422
     16 C          27.9636   31.6216   -2.7691 C.ar    1  UNL1        0.1034
     17 C          22.9979   30.4731   -1.1816 C.3     1  UNL1        0.1796
     18 S          22.9619   31.8099   -0.5022 S.O2    1  UNL1       -0.0078
     19 O          22.1403   32.3609   -1.6297 O.2     1  UNL1       -0.1729
     20 O          23.7835   31.2590    0.6254 O.2     1  UNL1       -0.1729
     21 C          22.9259   33.1467    0.1772 C.3     1  UNL1        0.1509
     22 C          22.3924   33.2639    1.5743 C.3     1  UNL1        0.0253
     23 C          20.9731   32.8788    1.8698 C.3     1  UNL1        0.0018
     24 C          19.8821   33.2386    0.9054 C.3     1  UNL1        0.0001
     25 C          18.4450   33.0851    1.3073 C.3     1  UNL1        0.0000
     26 C          22.8559   25.9691    1.7360 C.3     1  UNL1        0.1839
     27 O          22.6520   24.5011    1.5048 O.3     1  UNL1       -0.3775
     28 H          23.3731   23.9622    1.1435 H       1  UNL1        0.2106
     29 C          21.7408   26.8023    2.2947 C.3     1  UNL1        0.1339
     30 N          20.4570   26.1514    2.7168 N.4     1  UNL1        0.2597
     31 H          20.3955   25.6841    3.6213 H       1  UNL1        0.2040
     32 H          19.5841   25.7088    3.0038 H       1  UNL1        0.2040
     33 C          19.2637   26.1878    1.8087 C.3     1  UNL1        0.1298
     34 C          18.6363   24.9073    1.3431 C.ar    1  UNL1        0.0322
     35 C          18.7354   24.5044   -0.0983 C.ar    1  UNL1       -0.0029
     36 C          18.1080   23.2239   -0.5640 C.ar    1  UNL1       -0.0223
     37 C          17.3815   22.3465    0.4118 C.ar    1  UNL1       -0.0043
     38 C          17.2823   22.7494    1.8533 C.ar    1  UNL1       -0.0004
     39 C          17.9098   24.0299    2.3189 C.ar    1  UNL1        0.0014
     40 C          18.2071   22.8210   -2.0054 C.3     1  UNL1        0.0264
     41 C          18.3736   23.8676   -3.0671 C.3     1  UNL1        0.0050
     42 C          25.4479   25.8377    1.6155 C.3     1  UNL1        0.0487
     43 C          26.1249   25.1795    0.4500 C.ar    1  UNL1       -0.0160
     44 C          27.2467   25.8791   -0.2587 C.ar    1  UNL1        0.0256
     45 C          27.9238   25.2208   -1.4242 C.ar    1  UNL1        0.1421
     46 F          29.0455   25.9204   -2.1329 F       1  UNL1       -0.2041
     47 C          27.4791   23.8630   -1.8809 C.ar    1  UNL1        0.0592
     48 C          26.3573   23.1635   -1.1722 C.ar    1  UNL1        0.1421
     49 F          25.9126   21.8056   -1.6291 F       1  UNL1       -0.2041
     50 C          25.6802   23.8216   -0.0068 C.ar    1  UNL1        0.0256
@<TRIPOS>UNITY_ATOM_ATTR
30 1
charge 1
@<TRIPOS>BOND
     1    18    19    2
     2    18    20    2
     3    18    21    1
     4    21    22    1
     5    22    23    1
     6    23    24    1
     7    24    25    1
     8    18    17    1
     9     6    17    1
    10     6     7    1
    11     7     8   am
    12     8     9    2
    13     8    11    1
    14    11    12   ar
    15    12    13   ar
    16    13    14   ar
    17    14    15   ar
    18    15    16   ar
    19     6     2    1
    20     2     3    2
    21     2     4   am
    22     4     1    1
    23     1    26    1
    24    26    27    1
    25    26    29    1
    26    29    30    1
    27    30    33    1
    28    33    34    1
    29    34    35   ar
    30    35    36   ar
    31    36    37   ar
    32    37    38   ar
    33    38    39   ar
    34    36    40    1
    35    40    41    1
    36     1    42    1
    37    42    43    1
    38    43    44   ar
    39    44    45   ar
    40    45    46    1
    41    45    47   ar
    42    47    48   ar
    43    48    49    1
    44    48    50   ar
    45    16    11   ar
    46    39    34   ar
    47    50    43   ar
    48     7    10    1
    49     4     5    1
    50    27    28    1
    51    30    31    1
    52    30    32    1
@<TRIPOS>MOLECULE
*****
 50 52 0 0 0
SMALL
GASTEIGER

@<TRIPOS>ATOM
      1 C          22.7474   29.2544    1.3167 C.3     1  UNL1        0.1086
      2 C          25.1886   29.8354    0.6437 C.2     1  UNL1        0.2422
      3 O          25.5608   29.9497    2.0923 O.2     1  UNL1       -0.2733
      4 N          23.7820   29.4878    0.2559 N.am    1  UNL1       -0.3017
      5 H          23.5377   29.4128   -0.6949 H       1  UNL1        0.1495
      6 C          26.2231   30.0688   -0.4171 C.3     1  UNL1        0.1726
      7 N          26.5294   31.4651   -0.8717 N.am    1  UNL1       -0.2934
      8 C          25.4859   32.2647   -1.5939 C.2     1  UNL1        0.2477
      9 O          24.1359   31.6680   -1.8615 O.2     1  UNL1       -0.2701
     10 H          27.4155   31.8567   -0.6961 H       1  UNL1        0.1502
     11 C          25.7922   33.6610   -2.0485 C.ar    1  UNL1        0.0725
     12 C          27.0477   34.3409   -1.5887 C.ar    1  UNL1        0.0077
     13 C          27.3540   35.7371   -2.0433 C.ar    1  UNL1        0.0208
     14 C          26.4048   36.4534   -2.9576 C.ar    1  UNL1        0.0989
     15 N          25.1493   35.7735   -3.4174 N.ar    1  UNL1       -0.2422
     16 C          24.8430   34.3773   -2.9628 C.ar    1  UNL1        0.1034
     17 C          26.9513   28.9060   -1.0234 C.3     1  UNL1        0.1796
     18 S          26.3844   27.5222   -0.9057 S.O2    1  UNL1       -0.0078
     19 O          27.4048   27.1935    0.1435 O.2     1  UNL1       -0.1729
     20 O          25.3641   27.8510   -1.9549 O.2     1  UNL1       -0.1729
     21 C          25.8176   26.1385   -0.7880 C.3     1  UNL1        0.1509
     22 C          26.1503   25.2905    0.4038 C.3     1  UNL1        0.0253
     23 C          25.3159   24.0857    0.7235 C.3     1  UNL1        0.0018
     24 C          25.7579   22.7257    0.2708 C.3     1  UNL1        0.0001
     25 C          25.7634   22.3867   -1.1905 C.3     1  UNL1        0.0000
     26 C          22.7688   27.9873    2.1193 C.3     1  UNL1        0.1839
     27 O          24.0661   27.2737    2.3598 O.3     1  UNL1       -0.3775
     28 H          24.8912   27.6316    1.9962 H       1  UNL1        0.2106
     29 C          21.4930   27.4340    2.6815 C.3     1  UNL1        0.1339
     30 N          20.8524   26.2346    2.0481 N.4     1  UNL1        0.2597
     31 H          21.4152   25.4134    1.8262 H       1  UNL1        0.2040
     32 H          20.4168   25.4190    1.6175 H       1  UNL1        0.2040
     33 C          19.3842   26.2429    1.7412 C.3     1  UNL1        0.1298
     34 C          18.7042   24.9827    1.2946 C.ar    1  UNL1        0.0322
     35 C          18.8340   24.5239   -0.1276 C.ar    1  UNL1       -0.0029
     36 C          18.1540   23.2637   -0.5741 C.ar    1  UNL1       -0.0223
     37 C          17.3441   22.4623    0.4015 C.ar    1  UNL1       -0.0043
     38 C          17.2143   22.9210    1.8237 C.ar    1  UNL1       -0.0004
     39 C          17.8943   24.1812    2.2703 C.ar    1  UNL1        0.0014
     40 C          18.2838   22.8049   -1.9963 C.3     1  UNL1        0.0264
     41 C          18.2668   23.8072   -3.1122 C.3     1  UNL1        0.0050
     42 C          21.6915   30.2879    1.5748 C.3     1  UNL1        0.0487
     43 C          21.7189   31.5901    0.8308 C.ar    1  UNL1       -0.0160
     44 C          22.6670   32.6740    1.2507 C.ar    1  UNL1        0.0256
     45 C          22.6943   33.9762    0.5066 C.ar    1  UNL1        0.1421
     46 F          23.6424   35.0601    0.9265 F       1  UNL1       -0.2041
     47 C          21.7736   34.1945   -0.6572 C.ar    1  UNL1        0.0592
     48 C          20.8255   33.1106   -1.0771 C.ar    1  UNL1        0.1421
     49 F          19.9047   33.3289   -2.2410 F       1  UNL1       -0.2041
     50 C          20.7981   31.8084   -0.3331 C.ar    1  UNL1        0.0256
@<TRIPOS>UNITY_ATOM_ATTR
30 1
charge 1
@<TRIPOS>BOND
     1    18    19    2
     2    18    20    2
     3    18    21    1
     4    21    22    1
     5    22    23    1
     6    23    24    1
     7    24    25    1
     8    18    17    1
     9     6    17    1
    10     6     7    1
    11     7     8   am
    12     8     9    2
    13     8    11    1
    14    11    12   ar
    15    12    13   ar
    16    13    14   ar
    17    14    15   ar
    18    15    16   ar
    19     6     2    1
    20     2     3    2
    21     2     4   am
    22     4     1    1
    23     1    26    1
    24    26    27    1
    25    26    29    1
    26    29    30    1
    27    30    33    1
    28    33    34    1
    29    34    35   ar
    30    35    36   ar
    31    36    37   ar
    32    37    38   ar
    33    38    39   ar
    34    36    40    1
    35    40    41    1
    36     1    42    1
    37    42    43    1
    38    43    44   ar
    39    44    45   ar
    40    45    46    1
    41    45    47   ar
    42    47    48   ar
    43    48    49    1
    44    48    50   ar
    45    16    11   ar
    46    39    34   ar
    47    50    43   ar
    48     7    10    1
    49     4     5    1
    50    27    28    1
    51    30    31    1
    52    30    32    1
@<TRIPOS>MOLECULE
*****
 50 52 0 0 0
SMALL
GASTEIGER

@<TRIPOS>ATOM
      1 C          24.8976   25.5830    1.7522 C.3     1  UNL1        0.1086
      2 C          25.3230   27.7869    0.4438 C.2     1  UNL1        0.2422
      3 O          25.1708   27.0469   -0.8521 O.2     1  UNL1       -0.2733
      4 N          25.1864   27.0550    1.7459 N.am    1  UNL1       -0.3017
      5 H          25.2862   27.5407    2.5964 H       1  UNL1        0.1495
      6 C          25.6118   29.2588    0.4375 C.3     1  UNL1        0.1726
      7 N          24.5440   30.2343    0.8353 N.am    1  UNL1       -0.2934
      8 C          23.3634   30.4612   -0.0618 C.2     1  UNL1        0.2477
      9 O          23.2506   29.7125   -1.3567 O.2     1  UNL1       -0.2701
     10 H          24.6180   30.7257    1.6852 H       1  UNL1        0.1502
     11 C          22.2956   31.4367    0.3360 C.ar    1  UNL1        0.0725
     12 C          21.2199   31.8105   -0.6402 C.ar    1  UNL1        0.0077
     13 C          20.1521   32.7860   -0.2424 C.ar    1  UNL1        0.0208
     14 C          20.1601   33.3877    1.1316 C.ar    1  UNL1        0.0989
     15 N          21.2359   33.0139    2.1078 N.ar    1  UNL1       -0.2422
     16 C          22.3036   32.0384    1.7100 C.ar    1  UNL1        0.1034
     17 C          26.9684   29.7552    0.0335 C.3     1  UNL1        0.1796
     18 S          27.0955   30.9966   -0.7988 S.O2    1  UNL1       -0.0078
     19 O          27.8538   31.6628    0.3107 O.2     1  UNL1       -0.1729
     20 O          26.3372   30.3304   -1.9083 O.2     1  UNL1       -0.1729
     21 C          27.2226   32.2380   -1.6311 C.3     1  UNL1        0.1509
     22 C          27.9992   32.2046   -2.9140 C.3     1  UNL1        0.0253
     23 C          29.4954   32.3079   -2.8880 C.3     1  UNL1        0.0018
     24 C          30.1682   33.2007   -1.8879 C.3     1  UNL1        0.0001
     25 C          30.5084   34.6149   -2.2544 C.3     1  UNL1        0.0000
     26 C          23.4836   25.0967    1.8717 C.3     1  UNL1        0.1839
     27 O          23.1244   23.7149    1.4116 O.3     1  UNL1       -0.3775
     28 H          23.8064   23.1359    1.0368 H       1  UNL1        0.2106
     29 C          22.4290   25.9920    2.4513 C.3     1  UNL1        0.1339
     30 N          21.1778   25.4004    3.0297 N.4     1  UNL1        0.2597
     31 H          21.2304   24.8027    3.8545 H       1  UNL1        0.2040
     32 H          20.3270   24.9980    3.4230 H       1  UNL1        0.2040
     33 C          19.8494   25.6877    2.3951 C.3     1  UNL1        0.1298
     34 C          19.2311   24.6874    1.4639 C.ar    1  UNL1        0.0322
     35 C          18.6427   23.4196    2.0083 C.ar    1  UNL1       -0.0029
     36 C          18.0243   22.4194    1.0770 C.ar    1  UNL1       -0.0223
     37 C          17.9944   22.6869   -0.3986 C.ar    1  UNL1       -0.0043
     38 C          18.5828   23.9548   -0.9430 C.ar    1  UNL1       -0.0004
     39 C          19.2011   24.9550   -0.0118 C.ar    1  UNL1        0.0014
     40 C          17.4359   21.1516    1.6214 C.3     1  UNL1        0.0264
     41 C          17.8207   20.6733    2.9902 C.3     1  UNL1        0.0050
     42 C          26.0226   24.5975    1.6391 C.3     1  UNL1        0.0487
     43 C          26.6373   24.3114    0.3011 C.ar    1  UNL1       -0.0160
     44 C          25.9608   23.3681   -0.6488 C.ar    1  UNL1        0.0256
     45 C          26.5755   23.0820   -1.9869 C.ar    1  UNL1        0.1421
     46 F          25.8990   22.1386   -2.9368 F       1  UNL1       -0.2041
     47 C          27.8668   23.7392   -2.3749 C.ar    1  UNL1        0.0592
     48 C          28.5434   24.6826   -1.4250 C.ar    1  UNL1        0.1421
     49 F          29.8347   25.3399   -1.8131 F       1  UNL1       -0.2041
     50 C          27.9287   24.9687   -0.0870 C.ar    1  UNL1        0.0256
@<TRIPOS>UNITY_ATOM_ATTR
30 1
charge 1
@<TRIPOS>BOND
     1    18    19    2
     2    18    20    2
     3    18    21    1
     4    21    22    1
     5    22    23    1
     6    23    24    1
     7    24    25    1
     8    18    17    1
     9     6    17    1
    10     6     7    1
    11     7     8   am
    12     8     9    2
    13     8    11    1
    14    11    12   ar
    15    12    13   ar
    16    13    14   ar
    17    14    15   ar
    18    15    16   ar
    19     6     2    1
    20     2     3    2
    21     2     4   am
    22     4     1    1
    23     1    26    1
    24    26    27    1
    25    26    29    1
    26    29    30    1
    27    30    33    1
    28    33    34    1
    29    34    35   ar
    30    35    36   ar
    31    36    37   ar
    32    37    38   ar
    33    38    39   ar
    34    36    40    1
    35    40    41    1
    36     1    42    1
    37    42    43    1
    38    43    44   ar
    39    44    45   ar
    40    45    46    1
    41    45    47   ar
    42    47    48   ar
    43    48    49    1
    44    48    50   ar
    45    16    11   ar
    46    39    34   ar
    47    50    43   ar
    48     7    10    1
    49     4     5    1
    50    27    28    1
    51    30    31    1
    52    30    32    1
@<TRIPOS>MOLECULE
*****
 50 52 0 0 0
SMALL
GASTEIGER

@<TRIPOS>ATOM
      1 C          23.5477   27.6447    1.8291 C.3     1  UNL1        0.1086
      2 C          25.9792   27.0219    1.1584 C.2     1  UNL1        0.2422
      3 O          26.3669   26.9757    2.6067 O.2     1  UNL1       -0.2733
      4 N          24.5696   27.3564    0.7696 N.am    1  UNL1       -0.3017
      5 H          24.3152   27.3867   -0.1810 H       1  UNL1        0.1495
      6 C          27.0011   26.7336    0.0989 C.3     1  UNL1        0.1726
      7 N          27.5605   27.8532   -0.7280 N.am    1  UNL1       -0.2934
      8 C          26.7067   28.5173   -1.7671 C.2     1  UNL1        0.2477
      9 O          25.2933   28.0620   -1.9794 O.2     1  UNL1       -0.2701
     10 H          28.4882   28.1521   -0.5887 H       1  UNL1        0.1502
     11 C          27.2661   29.6369   -2.5940 C.ar    1  UNL1        0.0725
     12 C          27.5307   30.9732   -1.9662 C.ar    1  UNL1        0.0077
     13 C          28.0901   32.0927   -2.7930 C.ar    1  UNL1        0.0208
     14 C          28.3850   31.8759   -4.2477 C.ar    1  UNL1        0.0989
     15 N          28.1204   30.5395   -4.8755 N.ar    1  UNL1       -0.2422
     16 C          27.5609   29.4201   -4.0486 C.ar    1  UNL1        0.1034
     17 C          27.4636   25.3258   -0.1338 C.3     1  UNL1        0.1796
     18 S          28.7127   25.0675   -0.9230 S.O2    1  UNL1       -0.0078
     19 O          29.5008   24.9871    0.3507 O.2     1  UNL1       -0.1729
     20 O          27.9246   25.1479   -2.1967 O.2     1  UNL1       -0.1729
     21 C          29.9619   24.8092   -1.7122 C.3     1  UNL1        0.1509
     22 C          29.9150   23.9237   -2.9220 C.3     1  UNL1        0.0253
     23 C          31.1886   23.4083   -3.5240 C.3     1  UNL1        0.0018
     24 C          31.1650   22.1913   -4.4006 C.3     1  UNL1        0.0001
     25 C          32.4456   21.4899   -4.7447 C.3     1  UNL1        0.0000
     26 C          22.7961   26.5174    2.4727 C.3     1  UNL1        0.1839
     27 O          23.3712   25.1320    2.4657 O.3     1  UNL1       -0.3775
     28 H          24.2292   24.9652    2.0450 H       1  UNL1        0.2106
     29 C          21.4694   26.7753    3.1232 C.3     1  UNL1        0.1339
     30 N          20.3776   25.7508    3.0322 N.4     1  UNL1        0.2597
     31 H          20.3682   24.9572    3.6730 H       1  UNL1        0.2040
     32 H          19.6351   25.0541    2.9704 H       1  UNL1        0.2040
     33 C          19.2995   25.8933    1.9991 C.3     1  UNL1        0.1298
     34 C          18.8594   24.6994    1.2047 C.ar    1  UNL1        0.0322
     35 C          18.3574   23.4737    1.9088 C.ar    1  UNL1       -0.0029
     36 C          17.9173   22.2798    1.1145 C.ar    1  UNL1       -0.0223
     37 C          17.9792   22.3116   -0.3839 C.ar    1  UNL1       -0.0043
     38 C          18.4813   23.5373   -1.0880 C.ar    1  UNL1       -0.0004
     39 C          18.9214   24.7312   -0.2937 C.ar    1  UNL1        0.0014
     40 C          17.4153   21.0542    1.8185 C.3     1  UNL1        0.0264
     41 C          17.9564   20.6908    3.1696 C.3     1  UNL1        0.0050
     42 C          23.2773   29.0603    2.2450 C.3     1  UNL1        0.0487
     43 C          22.8632   30.0763    1.2223 C.ar    1  UNL1       -0.0160
     44 C          23.8151   30.4764    0.1342 C.ar    1  UNL1        0.0256
     45 C          23.4008   31.4925   -0.8885 C.ar    1  UNL1        0.1421
     46 F          24.3527   31.8925   -1.9766 F       1  UNL1       -0.2041
     47 C          22.0347   32.1085   -0.8232 C.ar    1  UNL1        0.0592
     48 C          21.0828   31.7084    0.2648 C.ar    1  UNL1        0.1421
     49 F          19.7167   32.3245    0.3301 F       1  UNL1       -0.2041
     50 C          21.4970   30.6924    1.2875 C.ar    1  UNL1        0.0256
@<TRIPOS>UNITY_ATOM_ATTR
30 1
charge 1
@<TRIPOS>BOND
     1    18    19    2
     2    18    20    2
     3    18    21    1
     4    21    22    1
     5    22    23    1
     6    23    24    1
     7    24    25    1
     8    18    17    1
     9     6    17    1
    10     6     7    1
    11     7     8   am
    12     8     9    2
    13     8    11    1
    14    11    12   ar
    15    12    13   ar
    16    13    14   ar
    17    14    15   ar
    18    15    16   ar
    19     6     2    1
    20     2     3    2
    21     2     4   am
    22     4     1    1
    23     1    26    1
    24    26    27    1
    25    26    29    1
    26    29    30    1
    27    30    33    1
    28    33    34    1
    29    34    35   ar
    30    35    36   ar
    31    36    37   ar
    32    37    38   ar
    33    38    39   ar
    34    36    40    1
    35    40    41    1
    36     1    42    1
    37    42    43    1
    38    43    44   ar
    39    44    45   ar
    40    45    46    1
    41    45    47   ar
    42    47    48   ar
    43    48    49    1
    44    48    50   ar
    45    16    11   ar
    46    39    34   ar
    47    50    43   ar
    48     7    10    1
    49     4     5    1
    50    27    28    1
    51    30    31    1
    52    30    32    1
@<TRIPOS>MOLECULE
*****
 39 43 0 0 0
SMALL
GASTEIGER

@<TRIPOS>ATOM
      1 F          18.0151   21.3189    4.3252 F       1  UNL1       -0.2039
      2 C          18.2942   20.9132    2.9084 C.ar    1  UNL1        0.1469
      3 C          19.1594   19.7208    2.6262 C.ar    1  UNL1        0.1054
      4 C          19.4385   19.3151    1.2094 C.ar    1  UNL1        0.0347
      5 C          18.8525   20.1018    0.0747 C.ar    1  UNL1        0.0006
      6 C          17.9874   21.2942    0.3568 C.ar    1  UNL1        0.0021
      7 C          17.7082   21.6999    1.7736 C.ar    1  UNL1        0.0299
      8 C          20.3216   18.1030    1.2398 C.3     1  UNL1        0.1866
      9 N          20.5883   17.7596    2.6754 N.2     1  UNL1       -0.2573
     10 C          19.8700   18.7594    3.5322 C.2     1  UNL1        0.2728
     11 N          19.8634   18.7922    5.0319 N.pl3   1  UNL1       -0.2495
     12 H          21.1382   17.0096    2.9985 H       1  UNL1        0.3054
     13 H          20.3631   18.1140    5.5413 H       1  UNL1        0.2883
     14 H          19.3592   19.4919    5.5067 H       1  UNL1        0.2883
     15 C          21.1868   16.9105    0.9577 C.ar    1  UNL1        0.0426
     16 C          20.5702   15.6383    0.4566 C.ar    1  UNL1        0.0022
     17 C          21.4353   14.4458    0.1745 C.ar    1  UNL1        0.0342
     18 C          20.8187   13.1735   -0.3266 C.3     1  UNL1        0.0360
     19 C          22.9171   14.5257    0.3935 C.ar    1  UNL1        0.2568
     20 O          23.7823   13.3332    0.1114 O.2     1  UNL1       -0.2673
     21 N          23.5337   15.7979    0.8946 N.ar    1  UNL1       -0.2946
     22 C          22.6686   16.9904    1.1767 C.ar    1  UNL1        0.0785
     23 C          25.0155   15.8777    1.1136 C.3     1  UNL1        0.1091
     24 C          25.8697   16.6813    0.1783 C.3     1  UNL1        0.0266
     25 C          20.2359   18.1971   -0.2548 C.ar    1  UNL1        0.0255
     26 C          19.0525   17.6228   -0.9758 C.ar    1  UNL1        0.0003
     27 C          18.9668   17.7169   -2.4705 C.ar    1  UNL1        0.0014
     28 C          20.0644   18.3854   -3.2440 C.ar    1  UNL1        0.0000
     29 C          21.2477   18.9598   -2.5230 C.ar    1  UNL1       -0.0002
     30 C          21.3335   18.8657   -1.0284 C.ar    1  UNL1        0.0002
     31 C          17.7834   17.1425   -3.1914 C.ar    1  UNL1        0.0198
     32 C          17.2418   15.8014   -2.7943 C.ar    1  UNL1        0.0113
     33 C          16.0584   15.2271   -3.5153 C.ar    1  UNL1        0.0608
     34 C          15.4167   15.9940   -4.6333 C.ar    1  UNL1        0.1071
     35 N          15.9584   17.3353   -5.0304 N.ar    1  UNL1       -0.2417
     36 C          17.1417   17.9095   -4.3095 C.ar    1  UNL1        0.0989
     37 C          15.5167   13.8858   -3.1182 C.1     1  UNL1       -0.0628
     38 C          14.9751   12.5446   -2.7211 C.1     1  UNL1       -0.0853
     39 C          14.4333   11.2033   -2.3242 C.3     1  UNL1        0.0903
@<TRIPOS>UNITY_ATOM_ATTR
9 1
charge 1
@<TRIPOS>BOND
     1     1     2    1
     2     2     3   ar
     3     3     4   ar
     4     4     5   ar
     5     5     6   ar
     6     6     7   ar
     7     4     8    1
     8     8     9    1
     9     9    10    2
    10    10    11    1
    11     8    15    1
    12    15    16   ar
    13    16    17   ar
    14    17    18    1
    15    17    19   ar
    16    19    20    2
    17    19    21   ar
    18    21    22   ar
    19    21    23    1
    20    23    24    1
    21     8    25    1
    22    25    26   ar
    23    26    27   ar
    24    27    28   ar
    25    28    29   ar
    26    29    30   ar
    27    27    31    1
    28    31    32   ar
    29    32    33   ar
    30    33    34   ar
    31    34    35   ar
    32    35    36   ar
    33    33    37    1
    34    37    38    3
    35    38    39    1
    36     7     2   ar
    37    15    22   ar
    38    30    25   ar
    39    36    31   ar
    40    10     3    1
    41     9    12    1
    42    11    13    1
    43    11    14    1
@<TRIPOS>MOLECULE
*****
 39 43 0 0 0
SMALL
GASTEIGER

@<TRIPOS>ATOM
      1 F          17.1717   14.9926   -4.9922 F       1  UNL1       -0.2039
      2 C          18.1823   15.4797   -3.9965 C.ar    1  UNL1        0.1469
      3 C          18.0317   16.8379   -3.3781 C.ar    1  UNL1        0.1054
      4 C          19.0423   17.3250   -2.3824 C.ar    1  UNL1        0.0347
      5 C          20.2036   16.4538   -2.0051 C.ar    1  UNL1        0.0006
      6 C          20.3543   15.0956   -2.6235 C.ar    1  UNL1        0.0021
      7 C          19.3436   14.6085   -3.6192 C.ar    1  UNL1        0.0299
      8 C          18.6342   18.6997   -1.9423 C.3     1  UNL1        0.1866
      9 N          17.3713   19.0622   -2.6660 N.2     1  UNL1       -0.2573
     10 C          16.9990   17.9116   -3.5533 C.2     1  UNL1        0.2728
     11 N          15.8037   17.8461   -4.4573 N.pl3   1  UNL1       -0.2495
     12 H          16.8741   19.9071   -2.5746 H       1  UNL1        0.3054
     13 H          15.1795   18.6060   -4.5038 H       1  UNL1        0.2883
     14 H          15.6435   17.0433   -5.0041 H       1  UNL1        0.2883
     15 C          18.4834   20.0580   -1.3239 C.ar    1  UNL1        0.0426
     16 C          18.5827   21.2865   -2.1788 C.ar    1  UNL1        0.0022
     17 C          18.4320   22.6447   -1.5605 C.ar    1  UNL1        0.0342
     18 C          18.5312   23.8732   -2.4154 C.3     1  UNL1        0.0360
     19 C          18.1820   22.7745   -0.0872 C.ar    1  UNL1        0.2568
     20 O          18.0313   24.1328    0.5312 O.2     1  UNL1       -0.2673
     21 N          18.0828   21.5460    0.7678 N.ar    1  UNL1       -0.2946
     22 C          18.2335   20.1877    0.1494 C.ar    1  UNL1        0.0785
     23 C          17.8328   21.6758    2.2411 C.3     1  UNL1        0.1091
     24 C          18.0723   20.5055    3.1484 C.3     1  UNL1        0.0266
     25 C          19.8655   18.6211   -1.0893 C.ar    1  UNL1        0.0255
     26 C          21.0911   19.3986   -1.4680 C.ar    1  UNL1        0.0003
     27 C          22.3225   19.3199   -0.6149 C.ar    1  UNL1        0.0014
     28 C          22.3282   18.4638    0.6167 C.ar    1  UNL1        0.0000
     29 C          21.1026   17.6863    0.9954 C.ar    1  UNL1       -0.0002
     30 C          19.8713   17.7649    0.1424 C.ar    1  UNL1        0.0002
     31 C          23.5481   20.0975   -0.9937 C.ar    1  UNL1        0.0198
     32 C          24.0184   21.2262   -0.1251 C.ar    1  UNL1        0.0113
     33 C          25.2440   22.0037   -0.5039 C.ar    1  UNL1        0.0608
     34 C          25.9991   21.6524   -1.7514 C.ar    1  UNL1        0.1071
     35 N          25.5288   20.5235   -2.6201 N.ar    1  UNL1       -0.2417
     36 C          24.3033   19.7461   -2.2413 C.ar    1  UNL1        0.0989
     37 C          25.7144   23.1325    0.3647 C.1     1  UNL1       -0.0628
     38 C          26.1848   24.2612    1.2334 C.1     1  UNL1       -0.0853
     39 C          26.6551   25.3900    2.1021 C.3     1  UNL1        0.0903
@<TRIPOS>UNITY_ATOM_ATTR
9 1
charge 1
@<TRIPOS>BOND
     1     1     2    1
     2     2     3   ar
     3     3     4   ar
     4     4     5   ar
     5     5     6   ar
     6     6     7   ar
     7     4     8    1
     8     8     9    1
     9     9    10    2
    10    10    11    1
    11     8    15    1
    12    15    16   ar
    13    16    17   ar
    14    17    18    1
    15    17    19   ar
    16    19    20    2
    17    19    21   ar
    18    21    22   ar
    19    21    23    1
    20    23    24    1
    21     8    25    1
    22    25    26   ar
    23    26    27   ar
    24    27    28   ar
    25    28    29   ar
    26    29    30   ar
    27    27    31    1
    28    31    32   ar
    29    32    33   ar
    30    33    34   ar
    31    34    35   ar
    32    35    36   ar
    33    33    37    1
    34    37    38    3
    35    38    39    1
    36     7     2   ar
    37    15    22   ar
    38    30    25   ar
    39    36    31   ar
    40    10     3    1
    41     9    12    1
    42    11    13    1
    43    11    14    1
@<TRIPOS>MOLECULE
*****
 39 43 0 0 0
SMALL
GASTEIGER

@<TRIPOS>ATOM
      1 F          18.8168   24.2987    2.2989 F       1  UNL1       -0.2039
      2 C          18.7016   23.0145    1.5323 C.ar    1  UNL1        0.1469
      3 C          19.9347   22.2319    1.1905 C.ar    1  UNL1        0.1054
      4 C          19.8195   20.9477    0.4240 C.ar    1  UNL1        0.0347
      5 C          18.4712   20.4462   -0.0008 C.ar    1  UNL1        0.0006
      6 C          17.2381   21.2288    0.3410 C.ar    1  UNL1        0.0021
      7 C          17.3533   22.5130    1.1076 C.ar    1  UNL1        0.0299
      8 C          21.2014   20.3965    0.2327 C.3     1  UNL1        0.1866
      9 N          22.1707   21.3400    0.8810 N.2     1  UNL1       -0.2573
     10 C          21.3878   22.4743    1.4730 C.2     1  UNL1        0.2728
     11 N          21.9579   23.6455    2.2168 N.pl3   1  UNL1       -0.2495
     12 H          23.1489   21.2335    0.9124 H       1  UNL1        0.3054
     13 H          22.9305   23.7166    2.3522 H       1  UNL1        0.2883
     14 H          21.3595   24.3432    2.5696 H       1  UNL1        0.2883
     15 C          22.4346   19.6138   -0.1091 C.ar    1  UNL1        0.0426
     16 C          23.0327   19.7179   -1.4807 C.ar    1  UNL1        0.0022
     17 C          24.2659   18.9353   -1.8225 C.ar    1  UNL1        0.0342
     18 C          24.8640   19.0394   -3.1942 C.3     1  UNL1        0.0360
     19 C          24.9008   18.0487   -0.7927 C.ar    1  UNL1        0.2568
     20 O          26.1340   17.2660   -1.1345 O.2     1  UNL1       -0.2673
     21 N          24.3027   17.9446    0.5789 N.ar    1  UNL1       -0.2946
     22 C          23.0695   18.7272    0.9207 C.ar    1  UNL1        0.0785
     23 C          24.9377   17.0578    1.6088 C.3     1  UNL1        0.1091
     24 C          24.5431   15.6136    1.7009 C.3     1  UNL1        0.0266
     25 C          20.4899   19.2894   -0.4871 C.ar    1  UNL1        0.0255
     26 C          20.3836   17.9321    0.1427 C.ar    1  UNL1        0.0003
     27 C          19.6721   16.8250   -0.5771 C.ar    1  UNL1        0.0014
     28 C          19.0670   17.0751   -1.9266 C.ar    1  UNL1        0.0000
     29 C          19.1733   18.4323   -2.5564 C.ar    1  UNL1       -0.0002
     30 C          19.8847   19.5395   -1.8367 C.ar    1  UNL1        0.0002
     31 C          19.5659   15.4677    0.0528 C.ar    1  UNL1        0.0198
     32 C          20.7310   14.8969    0.8053 C.ar    1  UNL1        0.0113
     33 C          20.6246   13.5396    1.4352 C.ar    1  UNL1        0.0608
     34 C          19.3531   12.7534    1.3124 C.ar    1  UNL1        0.1071
     35 N          18.1879   13.3243    0.5597 N.ar    1  UNL1       -0.2417
     36 C          18.2943   14.6815   -0.0701 C.ar    1  UNL1        0.0989
     37 C          21.7897   12.9687    2.1878 C.1     1  UNL1       -0.0628
     38 C          22.9549   12.3977    2.9404 C.1     1  UNL1       -0.0853
     39 C          24.1201   11.8268    3.6930 C.3     1  UNL1        0.0903
@<TRIPOS>UNITY_ATOM_ATTR
9 1
charge 1
@<TRIPOS>BOND
     1     1     2    1
     2     2     3   ar
     3     3     4   ar
     4     4     5   ar
     5     5     6   ar
     6     6     7   ar
     7     4     8    1
     8     8     9    1
     9     9    10    2
    10    10    11    1
    11     8    15    1
    12    15    16   ar
    13    16    17   ar
    14    17    18    1
    15    17    19   ar
    16    19    20    2
    17    19    21   ar
    18    21    22   ar
    19    21    23    1
    20    23    24    1
    21     8    25    1
    22    25    26   ar
    23    26    27   ar
    24    27    28   ar
    25    28    29   ar
    26    29    30   ar
    27    27    31    1
    28    31    32   ar
    29    32    33   ar
    30    33    34   ar
    31    34    35   ar
    32    35    36   ar
    33    33    37    1
    34    37    38    3
    35    38    39    1
    36     7     2   ar
    37    15    22   ar
    38    30    25   ar
    39    36    31   ar
    40    10     3    1
    41     9    12    1
    42    11    13    1
    43    11    14    1
@<TRIPOS>MOLECULE
*****
 39 43 0 0 0
SMALL
GASTEIGER

@<TRIPOS>ATOM
      1 F          26.1397   20.1534   -2.2943 F       1  UNL1       -0.2039
      2 C          24.8171   19.4476   -2.3435 C.ar    1  UNL1        0.1469
      3 C          23.7808   19.7225   -1.2945 C.ar    1  UNL1        0.1054
      4 C          22.4581   19.0168   -1.3438 C.ar    1  UNL1        0.0347
      5 C          22.1717   18.0361   -2.4421 C.ar    1  UNL1        0.0006
      6 C          23.2080   17.7612   -3.4911 C.ar    1  UNL1        0.0021
      7 C          24.5307   18.4670   -3.4418 C.ar    1  UNL1        0.0299
      8 C          21.6376   19.4882   -0.1799 C.3     1  UNL1        0.1866
      9 N          22.4532   20.4852    0.5887 N.2     1  UNL1       -0.2573
     10 C          23.7777   20.6301   -0.1002 C.2     1  UNL1        0.2728
     11 N          24.9019   21.5253    0.3297 N.pl3   1  UNL1       -0.2495
     12 H          22.1690   20.9610    1.4024 H       1  UNL1        0.3054
     13 H          24.8044   22.0870    1.1324 H       1  UNL1        0.2883
     14 H          25.7372   21.5511   -0.1907 H       1  UNL1        0.2883
     15 C          20.6013   19.7631    0.8692 C.ar    1  UNL1        0.0426
     16 C          19.4989   20.7430    0.5958 C.ar    1  UNL1        0.0022
     17 C          18.4627   21.0179    1.6448 C.ar    1  UNL1        0.0342
     18 C          17.3603   21.9978    1.3714 C.3     1  UNL1        0.0360
     19 C          18.5287   20.3131    2.9672 C.ar    1  UNL1        0.2568
     20 O          17.4924   20.5880    4.0163 O.2     1  UNL1       -0.2673
     21 N          19.6311   19.3332    3.2406 N.ar    1  UNL1       -0.2946
     22 C          20.6674   19.0582    2.1916 C.ar    1  UNL1        0.0785
     23 C          19.6971   18.6283    4.5631 C.3     1  UNL1        0.1091
     24 C          20.1058   19.3810    5.7945 C.3     1  UNL1        0.0266
     25 C          20.6054   18.5486   -0.7292 C.ar    1  UNL1        0.0255
     26 C          20.4790   17.1627   -0.1692 C.ar    1  UNL1        0.0003
     27 C          19.4467   16.2231   -0.7185 C.ar    1  UNL1        0.0014
     28 C          18.5409   16.6694   -1.8277 C.ar    1  UNL1        0.0000
     29 C          18.6672   18.0553   -2.3876 C.ar    1  UNL1       -0.0002
     30 C          19.6995   18.9948   -1.8384 C.ar    1  UNL1        0.0002
     31 C          19.3204   14.8373   -0.1586 C.ar    1  UNL1        0.0198
     32 C          20.4618   14.2282    0.6004 C.ar    1  UNL1        0.0113
     33 C          20.3354   12.8424    1.1604 C.ar    1  UNL1        0.0608
     34 C          19.0677   12.0657    0.9613 C.ar    1  UNL1        0.1071
     35 N          17.9262   12.6749    0.2022 N.ar    1  UNL1       -0.2417
     36 C          18.0526   14.0607   -0.3577 C.ar    1  UNL1        0.0989
     37 C          21.4767   12.2332    1.9194 C.1     1  UNL1       -0.0628
     38 C          22.6181   11.6239    2.6785 C.1     1  UNL1       -0.0853
     39 C          23.7595   11.0149    3.4376 C.3     1  UNL1        0.0903
@<TRIPOS>UNITY_ATOM_ATTR
9 1
charge 1
@<TRIPOS>BOND
     1     1     2    1
     2     2     3   ar
     3     3     4   ar
     4     4     5   ar
     5     5     6   ar
     6     6     7   ar
     7     4     8    1
     8     8     9    1
     9     9    10    2
    10    10    11    1
    11     8    15    1
    12    15    16   ar
    13    16    17   ar
    14    17    18    1
    15    17    19   ar
    16    19    20    2
    17    19    21   ar
    18    21    22   ar
    19    21    23    1
    20    23    24    1
    21     8    25    1
    22    25    26   ar
    23    26    27   ar
    24    27    28   ar
    25    28    29   ar
    26    29    30   ar
    27    27    31    1
    28    31    32   ar
    29    32    33   ar
    30    33    34   ar
    31    34    35   ar
    32    35    36   ar
    33    33    37    1
    34    37    38    3
    35    38    39    1
    36     7     2   ar
    37    15    22   ar
    38    30    25   ar
    39    36    31   ar
    40    10     3    1
    41     9    12    1
    42    11    13    1
    43    11    14    1
@<TRIPOS>MOLECULE
*****
 39 43 0 0 0
SMALL
GASTEIGER

@<TRIPOS>ATOM
      1 F          18.0990   21.3896    4.3617 F       1  UNL1       -0.2039
      2 C          18.2915   20.9184    2.9507 C.ar    1  UNL1        0.1469
      3 C          19.1694   19.7355    2.6682 C.ar    1  UNL1        0.1054
      4 C          19.3620   19.2644    1.2572 C.ar    1  UNL1        0.0347
      5 C          18.6766   19.9762    0.1287 C.ar    1  UNL1        0.0006
      6 C          17.7987   21.1591    0.4112 C.ar    1  UNL1        0.0021
      7 C          17.6061   21.6302    1.8222 C.ar    1  UNL1        0.0299
      8 C          20.2799   18.0784    1.2857 C.3     1  UNL1        0.1866
      9 N          20.6547   17.8165    2.7143 N.2     1  UNL1       -0.2573
     10 C          19.9684   18.8407    3.5687 C.2     1  UNL1        0.2728
     11 N          20.0642   18.9507    5.0616 N.pl3   1  UNL1       -0.2495
     12 H          21.2471   17.0985    3.0349 H       1  UNL1        0.3054
     13 H          20.6173   18.3127    5.5678 H       1  UNL1        0.2883
     14 H          19.5738   19.6610    5.5353 H       1  UNL1        0.2883
     15 C          21.1579   16.8953    1.0032 C.ar    1  UNL1        0.0426
     16 C          20.5500   15.6023    0.5467 C.ar    1  UNL1        0.0022
     17 C          21.4279   14.4193    0.2643 C.ar    1  UNL1        0.0342
     18 C          20.8201   13.1262   -0.1922 C.3     1  UNL1        0.0360
     19 C          22.9137   14.5294    0.4383 C.ar    1  UNL1        0.2568
     20 O          23.7917   13.3464    0.1558 O.2     1  UNL1       -0.2673
     21 N          23.5216   15.8225    0.8948 N.ar    1  UNL1       -0.2946
     22 C          22.6437   17.0055    1.1773 C.ar    1  UNL1        0.0785
     23 C          25.0074   15.9326    1.0688 C.3     1  UNL1        0.1091
     24 C          25.7918   16.8952    0.2273 C.3     1  UNL1        0.0266
     25 C          20.0887   18.0929   -0.2019 C.ar    1  UNL1        0.0255
     26 C          18.9589   17.3241   -0.8205 C.ar    1  UNL1        0.0003
     27 C          18.7677   17.3386   -2.3082 C.ar    1  UNL1        0.0014
     28 C          19.7063   18.1220   -3.1774 C.ar    1  UNL1        0.0000
     29 C          20.8360   18.8909   -2.5589 C.ar    1  UNL1       -0.0002
     30 C          21.0273   18.8763   -1.0712 C.ar    1  UNL1        0.0002
     31 C          17.6380   16.5697   -2.9267 C.ar    1  UNL1        0.0198
     32 C          16.9158   17.1258   -4.1179 C.ar    1  UNL1        0.0113
     33 C          15.7861   16.3569   -4.7363 C.ar    1  UNL1        0.0608
     34 C          15.3785   15.0319   -4.1633 C.ar    1  UNL1        0.1071
     35 N          16.1007   14.4758   -2.9719 N.ar    1  UNL1       -0.2417
     36 C          17.2304   15.2447   -2.3536 C.ar    1  UNL1        0.0989
     37 C          15.0639   16.9129   -5.9276 C.1     1  UNL1       -0.0628
     38 C          14.3417   17.4689   -7.1190 C.1     1  UNL1       -0.0853
     39 C          13.6195   18.0248   -8.3104 C.3     1  UNL1        0.0903
@<TRIPOS>UNITY_ATOM_ATTR
9 1
charge 1
@<TRIPOS>BOND
     1     1     2    1
     2     2     3   ar
     3     3     4   ar
     4     4     5   ar
     5     5     6   ar
     6     6     7   ar
     7     4     8    1
     8     8     9    1
     9     9    10    2
    10    10    11    1
    11     8    15    1
    12    15    16   ar
    13    16    17   ar
    14    17    18    1
    15    17    19   ar
    16    19    20    2
    17    19    21   ar
    18    21    22   ar
    19    21    23    1
    20    23    24    1
    21     8    25    1
    22    25    26   ar
    23    26    27   ar
    24    27    28   ar
    25    28    29   ar
    26    29    30   ar
    27    27    31    1
    28    31    32   ar
    29    32    33   ar
    30    33    34   ar
    31    34    35   ar
    32    35    36   ar
    33    33    37    1
    34    37    38    3
    35    38    39    1
    36     7     2   ar
    37    15    22   ar
    38    30    25   ar
    39    36    31   ar
    40    10     3    1
    41     9    12    1
    42    11    13    1
    43    11    14    1
@<TRIPOS>MOLECULE
*****
 39 43 0 0 0
SMALL
GASTEIGER

@<TRIPOS>ATOM
      1 F          17.5695   22.9523    2.5690 F       1  UNL1       -0.2039
      2 C          17.9598   22.1868    1.3395 C.ar    1  UNL1        0.1469
      3 C          18.6595   20.8664    1.4686 C.ar    1  UNL1        0.1054
      4 C          19.0498   20.1010    0.2391 C.ar    1  UNL1        0.0347
      5 C          18.7403   20.6560   -1.1196 C.ar    1  UNL1        0.0006
      6 C          18.0405   21.9764   -1.2488 C.ar    1  UNL1        0.0021
      7 C          17.6503   22.7418   -0.0193 C.ar    1  UNL1        0.0299
      8 C          19.7246   18.8346    0.6761 C.3     1  UNL1        0.1866
      9 N          19.7514   18.8174    2.1758 N.2     1  UNL1       -0.2573
     10 C          19.0931   20.0731    2.6656 C.2     1  UNL1        0.2728
     11 N          18.9020   20.4665    4.1004 N.pl3   1  UNL1       -0.2495
     12 H          20.1339   18.1067    2.7396 H       1  UNL1        0.3054
     13 H          19.2229   19.8758    4.8197 H       1  UNL1        0.2883
     14 H          18.4557   21.3154    4.3228 H       1  UNL1        0.2883
     15 C          20.4245   17.5141    0.8054 C.ar    1  UNL1        0.0426
     16 C          21.8854   17.4694    1.1424 C.ar    1  UNL1        0.0022
     17 C          22.5852   16.1490    1.2716 C.ar    1  UNL1        0.0342
     18 C          24.0462   16.1043    1.6086 C.3     1  UNL1        0.0360
     19 C          21.8241   14.8733    1.0638 C.ar    1  UNL1        0.2568
     20 O          22.5239   13.5529    1.1930 O.2     1  UNL1       -0.2673
     21 N          20.3631   14.9181    0.7268 N.ar    1  UNL1       -0.2946
     22 C          19.6633   16.2385    0.5976 C.ar    1  UNL1        0.0785
     23 C          19.6020   13.6423    0.5190 C.3     1  UNL1        0.1091
     24 C          18.2312   13.6773   -0.0891 C.3     1  UNL1        0.0266
     25 C          19.8442   18.5758   -0.7965 C.ar    1  UNL1        0.0255
     26 C          18.7079   17.9394   -1.5408 C.ar    1  UNL1        0.0003
     27 C          18.8275   17.6806   -3.0135 C.ar    1  UNL1        0.0014
     28 C          20.0833   18.0581   -3.7419 C.ar    1  UNL1        0.0000
     29 C          21.2195   18.6946   -2.9976 C.ar    1  UNL1       -0.0002
     30 C          21.1000   18.9534   -1.5249 C.ar    1  UNL1        0.0002
     31 C          17.6912   17.0441   -3.7577 C.ar    1  UNL1        0.0198
     32 C          17.1403   15.7259   -3.3010 C.ar    1  UNL1        0.0113
     33 C          16.0040   15.0896   -4.0453 C.ar    1  UNL1        0.0608
     34 C          15.4187   15.7715   -5.2463 C.ar    1  UNL1        0.1071
     35 N          15.9697   17.0898   -5.7031 N.ar    1  UNL1       -0.2417
     36 C          17.1059   17.7261   -4.9588 C.ar    1  UNL1        0.0989
     37 C          15.4530   13.7713   -3.5885 C.1     1  UNL1       -0.0628
     38 C          14.9020   12.4531   -3.1318 C.1     1  UNL1       -0.0853
     39 C          14.3511   11.1348   -2.6751 C.3     1  UNL1        0.0903
@<TRIPOS>UNITY_ATOM_ATTR
9 1
charge 1
@<TRIPOS>BOND
     1     1     2    1
     2     2     3   ar
     3     3     4   ar
     4     4     5   ar
     5     5     6   ar
     6     6     7   ar
     7     4     8    1
     8     8     9    1
     9     9    10    2
    10    10    11    1
    11     8    15    1
    12    15    16   ar
    13    16    17   ar
    14    17    18    1
    15    17    19   ar
    16    19    20    2
    17    19    21   ar
    18    21    22   ar
    19    21    23    1
    20    23    24    1
    21     8    25    1
    22    25    26   ar
    23    26    27   ar
    24    27    28   ar
    25    28    29   ar
    26    29    30   ar
    27    27    31    1
    28    31    32   ar
    29    32    33   ar
    30    33    34   ar
    31    34    35   ar
    32    35    36   ar
    33    33    37    1
    34    37    38    3
    35    38    39    1
    36     7     2   ar
    37    15    22   ar
    38    30    25   ar
    39    36    31   ar
    40    10     3    1
    41     9    12    1
    42    11    13    1
    43    11    14    1
@<TRIPOS>MOLECULE
*****
 39 43 0 0 0
SMALL
GASTEIGER

@<TRIPOS>ATOM
      1 F          26.3734   18.3871   -1.6968 F       1  UNL1       -0.2039
      2 C          25.0165   17.7615   -1.5653 C.ar    1  UNL1        0.1469
      3 C          23.8688   18.5650   -1.0296 C.ar    1  UNL1        0.1054
      4 C          22.5119   17.9393   -0.8982 C.ar    1  UNL1        0.0347
      5 C          22.3027   16.5101   -1.3025 C.ar    1  UNL1        0.0006
      6 C          23.4504   15.7065   -1.8382 C.ar    1  UNL1        0.0021
      7 C          24.8073   16.3322   -1.9696 C.ar    1  UNL1        0.0299
      8 C          21.5772   18.9720   -0.3414 C.3     1  UNL1        0.1866
      9 N          22.3565   20.2359   -0.1287 N.2     1  UNL1       -0.2573
     10 C          23.7727   19.9844   -0.5541 C.2     1  UNL1        0.2728
     11 N          24.8958   20.9778   -0.5114 N.pl3   1  UNL1       -0.2495
     12 H          22.0009   21.0820    0.2275 H       1  UNL1        0.3054
     13 H          24.7332   21.8908   -0.1809 H       1  UNL1        0.2883
     14 H          25.7956   20.7168   -0.8138 H       1  UNL1        0.2883
     15 C          20.4295   19.7756    0.1943 C.ar    1  UNL1        0.0426
     16 C          19.9182   19.5207    1.5812 C.ar    1  UNL1        0.0022
     17 C          18.7705   20.3242    2.1170 C.ar    1  UNL1        0.0342
     18 C          18.2592   20.0692    3.5039 C.3     1  UNL1        0.0360
     19 C          18.1341   21.3827    1.2659 C.ar    1  UNL1        0.2568
     20 O          16.9864   22.1864    1.8016 O.2     1  UNL1       -0.2673
     21 N          18.6455   21.6377   -0.1211 N.ar    1  UNL1       -0.2946
     22 C          19.7931   20.8342   -0.6568 C.ar    1  UNL1        0.0785
     23 C          18.0090   22.6963   -0.9722 C.3     1  UNL1        0.1091
     24 C          18.6928   24.0179   -1.1615 C.3     1  UNL1        0.0266
     25 C          20.5580   17.8761   -0.4421 C.ar    1  UNL1        0.0255
     26 C          19.6050   17.8422   -1.6000 C.ar    1  UNL1        0.0003
     27 C          18.5858   16.7462   -1.7006 C.ar    1  UNL1        0.0014
     28 C          18.5196   15.6842   -0.6434 C.ar    1  UNL1        0.0000
     29 C          19.4726   15.7180    0.5144 C.ar    1  UNL1       -0.0002
     30 C          20.4918   16.8140    0.6151 C.ar    1  UNL1        0.0002
     31 C          17.6328   16.7124   -2.8585 C.ar    1  UNL1        0.0198
     32 C          16.8594   15.4625   -3.1571 C.ar    1  UNL1        0.0113
     33 C          15.9064   15.4288   -4.3151 C.ar    1  UNL1        0.0608
     34 C          15.7269   16.6451   -5.1743 C.ar    1  UNL1        0.1071
     35 N          16.5004   17.8952   -4.8756 N.ar    1  UNL1       -0.2417
     36 C          17.4533   17.9289   -3.7178 C.ar    1  UNL1        0.0989
     37 C          15.1330   14.1788   -4.6137 C.1     1  UNL1       -0.0628
     38 C          14.3595   12.9288   -4.9124 C.1     1  UNL1       -0.0853
     39 C          13.5860   11.6788   -5.2112 C.3     1  UNL1        0.0903
@<TRIPOS>UNITY_ATOM_ATTR
9 1
charge 1
@<TRIPOS>BOND
     1     1     2    1
     2     2     3   ar
     3     3     4   ar
     4     4     5   ar
     5     5     6   ar
     6     6     7   ar
     7     4     8    1
     8     8     9    1
     9     9    10    2
    10    10    11    1
    11     8    15    1
    12    15    16   ar
    13    16    17   ar
    14    17    18    1
    15    17    19   ar
    16    19    20    2
    17    19    21   ar
    18    21    22   ar
    19    21    23    1
    20    23    24    1
    21     8    25    1
    22    25    26   ar
    23    26    27   ar
    24    27    28   ar
    25    28    29   ar
    26    29    30   ar
    27    27    31    1
    28    31    32   ar
    29    32    33   ar
    30    33    34   ar
    31    34    35   ar
    32    35    36   ar
    33    33    37    1
    34    37    38    3
    35    38    39    1
    36     7     2   ar
    37    15    22   ar
    38    30    25   ar
    39    36    31   ar
    40    10     3    1
    41     9    12    1
    42    11    13    1
    43    11    14    1
@<TRIPOS>MOLECULE
*****
 39 43 0 0 0
SMALL
GASTEIGER

@<TRIPOS>ATOM
      1 F          26.1009   20.1721   -2.5040 F       1  UNL1       -0.2039
      2 C          24.7271   19.5830   -2.6289 C.ar    1  UNL1        0.1469
      3 C          23.7024   19.8371   -1.5633 C.ar    1  UNL1        0.1054
      4 C          22.3286   19.2479   -1.6881 C.ar    1  UNL1        0.0347
      5 C          21.9795   18.4047   -2.8785 C.ar    1  UNL1        0.0006
      6 C          23.0042   18.1506   -3.9441 C.ar    1  UNL1        0.0021
      7 C          24.3780   18.7398   -3.8192 C.ar    1  UNL1        0.0299
      8 C          21.5332   19.6684   -0.4879 C.3     1  UNL1        0.1866
      9 N          22.4153   20.5174    0.3787 N.2     1  UNL1       -0.2573
     10 C          23.7560   20.6217   -0.2860 C.2     1  UNL1        0.2728
     11 N          24.9421   21.3777    0.2352 N.pl3   1  UNL1       -0.2495
     12 H          22.1594   20.9332    1.2335 H       1  UNL1        0.3054
     13 H          24.8792   21.8648    1.0884 H       1  UNL1        0.2883
     14 H          25.7834   21.3868   -0.2759 H       1  UNL1        0.2883
     15 C          20.5085   19.9225    0.5777 C.ar    1  UNL1        0.0426
     16 C          20.5893   19.1921    1.8853 C.ar    1  UNL1        0.0022
     17 C          19.5647   19.4461    2.9509 C.ar    1  UNL1        0.0342
     18 C          19.6456   18.7157    4.2586 C.3     1  UNL1        0.0360
     19 C          18.4593   20.4307    2.7089 C.ar    1  UNL1        0.2568
     20 O          17.4346   20.6848    3.7746 O.2     1  UNL1       -0.2673
     21 N          18.3784   21.1612    1.4013 N.ar    1  UNL1       -0.2946
     22 C          19.4031   20.9071    0.3357 C.ar    1  UNL1        0.0785
     23 C          17.2729   22.1457    1.1593 C.3     1  UNL1        0.1091
     24 C          17.4375   23.5764    1.5791 C.3     1  UNL1        0.0266
     25 C          20.4368   18.8725   -1.1317 C.ar    1  UNL1        0.0255
     26 C          20.1835   17.4586   -0.6998 C.ar    1  UNL1        0.0003
     27 C          19.0870   16.6627   -1.3436 C.ar    1  UNL1        0.0014
     28 C          18.2440   17.2808   -2.4194 C.ar    1  UNL1        0.0000
     29 C          18.4973   18.6947   -2.8514 C.ar    1  UNL1       -0.0002
     30 C          19.5937   19.4906   -2.2076 C.ar    1  UNL1        0.0002
     31 C          18.8337   15.2488   -0.9116 C.ar    1  UNL1        0.0198
     32 C          17.7060   14.4692   -1.5201 C.ar    1  UNL1        0.0113
     33 C          17.4527   13.0553   -1.0880 C.ar    1  UNL1        0.0608
     34 C          18.3273   12.4210   -0.0474 C.ar    1  UNL1        0.1071
     35 N          19.4552   13.2006    0.5611 N.ar    1  UNL1       -0.2417
     36 C          19.7084   14.6145    0.1290 C.ar    1  UNL1        0.0989
     37 C          16.3250   12.2756   -1.6964 C.1     1  UNL1       -0.0628
     38 C          15.1972   11.4959   -2.3049 C.1     1  UNL1       -0.0853
     39 C          14.0695   10.7162   -2.9134 C.3     1  UNL1        0.0903
@<TRIPOS>UNITY_ATOM_ATTR
9 1
charge 1
@<TRIPOS>BOND
     1     1     2    1
     2     2     3   ar
     3     3     4   ar
     4     4     5   ar
     5     5     6   ar
     6     6     7   ar
     7     4     8    1
     8     8     9    1
     9     9    10    2
    10    10    11    1
    11     8    15    1
    12    15    16   ar
    13    16    17   ar
    14    17    18    1
    15    17    19   ar
    16    19    20    2
    17    19    21   ar
    18    21    22   ar
    19    21    23    1
    20    23    24    1
    21     8    25    1
    22    25    26   ar
    23    26    27   ar
    24    27    28   ar
    25    28    29   ar
    26    29    30   ar
    27    27    31    1
    28    31    32   ar
    29    32    33   ar
    30    33    34   ar
    31    34    35   ar
    32    35    36   ar
    33    33    37    1
    34    37    38    3
    35    38    39    1
    36     7     2   ar
    37    15    22   ar
    38    30    25   ar
    39    36    31   ar
    40    10     3    1
    41     9    12    1
    42    11    13    1
    43    11    14    1
@<TRIPOS>MOLECULE
*****
 39 43 0 0 0
SMALL
GASTEIGER

@<TRIPOS>ATOM
      1 F          18.7809   24.5800    2.2208 F       1  UNL1       -0.2039
      2 C          18.7365   23.2192    1.5914 C.ar    1  UNL1        0.1469
      3 C          20.0097   22.4671    1.3403 C.ar    1  UNL1        0.1054
      4 C          19.9653   21.1062    0.7110 C.ar    1  UNL1        0.0347
      5 C          18.6477   20.4974    0.3328 C.ar    1  UNL1        0.0006
      6 C          17.3744   21.2495    0.5839 C.ar    1  UNL1        0.0021
      7 C          17.4188   22.6104    1.2132 C.ar    1  UNL1        0.0299
      8 C          21.3743   20.6070    0.5863 C.3     1  UNL1        0.1866
      9 N          22.2895   21.6593    1.1386 N.2     1  UNL1       -0.2573
     10 C          21.4462   22.8089    1.6046 C.2     1  UNL1        0.2728
     11 N          21.9506   24.0776    2.2258 N.pl3   1  UNL1       -0.2495
     12 H          23.2714   21.6050    1.1868 H       1  UNL1        0.3054
     13 H          22.9170   24.2102    2.3588 H       1  UNL1        0.2883
     14 H          21.3153   24.7777    2.5005 H       1  UNL1        0.2883
     15 C          22.6477   19.8549    0.3352 C.ar    1  UNL1        0.0426
     16 C          22.9866   18.6546    1.1686 C.ar    1  UNL1        0.0022
     17 C          24.2599   17.9025    0.9176 C.ar    1  UNL1        0.0342
     18 C          24.5988   16.7023    1.7509 C.3     1  UNL1        0.0360
     19 C          25.1943   18.3507   -0.1668 C.ar    1  UNL1        0.2568
     20 O          26.4676   17.5986   -0.4179 O.2     1  UNL1       -0.2673
     21 N          24.8554   19.5510   -1.0002 N.ar    1  UNL1       -0.2946
     22 C          23.5821   20.3031   -0.7492 C.ar    1  UNL1        0.0785
     23 C          25.7898   19.9992   -2.0847 C.3     1  UNL1        0.1091
     24 C          25.7945   21.4329   -2.5255 C.3     1  UNL1        0.0266
     25 C          20.7253   19.3974   -0.0184 C.ar    1  UNL1        0.0255
     26 C          20.6166   19.2710   -1.5091 C.ar    1  UNL1        0.0003
     27 C          19.9676   18.0614   -2.1139 C.ar    1  UNL1        0.0014
     28 C          19.4273   16.9783   -1.2279 C.ar    1  UNL1        0.0000
     29 C          19.5360   17.1047    0.2628 C.ar    1  UNL1       -0.0002
     30 C          20.1850   18.3142    0.8676 C.ar    1  UNL1        0.0002
     31 C          19.8589   17.9350   -3.6046 C.ar    1  UNL1        0.0198
     32 C          18.5575   17.5288   -4.2300 C.ar    1  UNL1        0.0113
     33 C          18.4489   17.4025   -5.7207 C.ar    1  UNL1        0.0608
     34 C          19.6418   17.6824   -6.5860 C.ar    1  UNL1        0.1071
     35 N          20.9433   18.0887   -5.9605 N.ar    1  UNL1       -0.2417
     36 C          21.0518   18.2150   -4.4699 C.ar    1  UNL1        0.0989
     37 C          17.1475   16.9962   -6.3462 C.1     1  UNL1       -0.0628
     38 C          15.8461   16.5899   -6.9717 C.1     1  UNL1       -0.0853
     39 C          14.5446   16.1836   -7.5970 C.3     1  UNL1        0.0903
@<TRIPOS>UNITY_ATOM_ATTR
9 1
charge 1
@<TRIPOS>BOND
     1     1     2    1
     2     2     3   ar
     3     3     4   ar
     4     4     5   ar
     5     5     6   ar
     6     6     7   ar
     7     4     8    1
     8     8     9    1
     9     9    10    2
    10    10    11    1
    11     8    15    1
    12    15    16   ar
    13    16    17   ar
    14    17    18    1
    15    17    19   ar
    16    19    20    2
    17    19    21   ar
    18    21    22   ar
    19    21    23    1
    20    23    24    1
    21     8    25    1
    22    25    26   ar
    23    26    27   ar
    24    27    28   ar
    25    28    29   ar
    26    29    30   ar
    27    27    31    1
    28    31    32   ar
    29    32    33   ar
    30    33    34   ar
    31    34    35   ar
    32    35    36   ar
    33    33    37    1
    34    37    38    3
    35    38    39    1
    36     7     2   ar
    37    15    22   ar
    38    30    25   ar
    39    36    31   ar
    40    10     3    1
    41     9    12    1
    42    11    13    1
    43    11    14    1
@<TRIPOS>MOLECULE
*****
 45 50 0 0 0
SMALL
GASTEIGER

@<TRIPOS>ATOM
      1 C          22.6270   20.6288   -0.0867 C.3     1  UNL1        0.1089
      2 N          23.9883   21.2566   -0.0347 N.am    1  UNL1       -0.2995
      3 C          24.9507   22.3769    0.2274 C.2     1  UNL1        0.2473
      4 O          26.2752   21.7692   -0.1280 O.2     1  UNL1       -0.2701
      5 C          25.3237   23.7677    0.6478 C.ar    1  UNL1        0.0708
      6 C          26.5525   24.6739    0.8079 C.ar    1  UNL1        0.0109
      7 C          26.7061   26.0947    1.2636 C.ar    1  UNL1        0.0609
      8 C          25.4985   26.8876    1.6673 C.ar    1  UNL1        0.2610
      9 O          25.6522   28.3085    2.1230 O.2     1  UNL1       -0.2670
     10 N          24.1373   26.2597    1.6153 N.ar    1  UNL1       -0.2940
     11 C          22.8127   26.8675    1.9708 C.3     1  UNL1        0.1091
     12 C          21.3223   26.8564    2.1392 C.3     1  UNL1        0.0249
     13 C          19.9610   26.2285    2.0871 C.3     1  UNL1        0.0067
     14 C          18.9985   25.1082    1.8250 C.3     1  UNL1        0.0264
     15 C          18.6256   23.7174    1.4046 C.ar    1  UNL1       -0.0225
     16 C          19.8332   22.9245    1.0009 C.ar    1  UNL1       -0.0085
     17 C          19.6795   21.5038    0.5452 C.ar    1  UNL1       -0.0208
     18 C          21.1365   20.6175    0.0817 C.3     1  UNL1        0.0486
     19 C          18.3183   20.8759    0.4932 C.ar    1  UNL1       -0.0042
     20 C          17.1107   21.6687    0.8969 C.ar    1  UNL1       -0.0006
     21 C          17.2643   23.0895    1.3526 C.ar    1  UNL1       -0.0043
     22 C          25.0335   25.1534    1.1431 C.ar    1  UNL1        0.0828
     23 H          24.5765   20.5305   -0.3446 H       1  UNL1        0.1498
     24 C          22.9173   19.2430   -0.5820 C.3     1  UNL1        0.1839
     25 O          22.6968   18.9010   -2.0258 O.3     1  UNL1       -0.3775
     26 H          22.8845   18.0049   -2.3461 H       1  UNL1        0.2106
     27 C          23.4282   18.1991    0.3664 C.3     1  UNL1        0.1337
     28 N          23.6251   16.7890   -0.1054 N.4     1  UNL1        0.2553
     29 H          24.2274   16.5985   -0.9062 H       1  UNL1        0.2037
     30 H          24.0936   17.5574   -0.5854 H       1  UNL1        0.2037
     31 O          21.5582   13.3988    2.0122 O.3     1  UNL1       -0.4825
     32 C          20.7987   14.2477    1.0362 C.ar    1  UNL1        0.1394
     33 C          21.4877   15.3777    0.3303 C.ar    1  UNL1        0.0602
     34 C          20.7283   16.2267   -0.6457 C.ar    1  UNL1       -0.0001
     35 C          19.2799   15.9455   -0.9158 C.ar    1  UNL1       -0.0221
     36 C          18.5908   14.8155   -0.2099 C.ar    1  UNL1       -0.0012
     37 C          19.3503   13.9665    0.7661 C.ar    1  UNL1        0.0364
     38 C          22.9362   15.6589    0.6005 C.3     1  UNL1        0.0818
     39 C          23.6956   14.8100    1.5764 C.3     1  UNL1        0.0997
     40 C          23.0067   13.6800    2.2823 C.3     1  UNL1        0.1389
     41 C          22.6711   12.5036    3.1504 C.3     1  UNL1        0.0404
     42 C          24.0806   12.4794    3.6626 C.3     1  UNL1        0.0072
     43 C          24.4162   13.6558    2.7946 C.3     1  UNL1        0.0404
     44 C          18.5203   16.7944   -1.8918 C.3     1  UNL1        0.0264
     45 C          18.8908   18.2358   -2.0792 C.3     1  UNL1        0.0050
@<TRIPOS>UNITY_ATOM_ATTR
28 1
charge 1
@<TRIPOS>BOND
     1    31    32    1
     2    32    33   ar
     3    33    34   ar
     4    34    35   ar
     5    35    36   ar
     6    36    37   ar
     7    35    44    1
     8    44    45    1
     9    33    38    1
    10    38    28    1
    11    28    27    1
    12    27    24    1
    13    24    25    1
    14    24     1    1
    15     1     2    1
    16     2     3   am
    17     3     4    2
    18     3     5    1
    19     5     6   ar
    20     6     7   ar
    21     7     8   ar
    22     8     9    2
    23     8    10   ar
    24    10    11    1
    25    11    12    1
    26    12    13    1
    27    13    14    1
    28    14    15    1
    29    15    16   ar
    30    16    17   ar
    31    17    18    1
    32    17    19   ar
    33    19    20   ar
    34    20    21   ar
    35    10    22   ar
    36    38    39    1
    37    39    40    1
    38    40    41    1
    39    41    42    1
    40    42    43    1
    41    40    31    1
    42    37    32   ar
    43     1    18    1
    44    43    40    1
    45     5    22   ar
    46    21    15   ar
    47    28    29    1
    48    28    30    1
    49    25    26    1
    50     2    23    1
@<TRIPOS>MOLECULE
*****
 45 50 0 0 0
SMALL
GASTEIGER

@<TRIPOS>ATOM
      1 C          22.7188   20.6080   -0.1523 C.3     1  UNL1        0.1089
      2 N          24.0595   21.2743   -0.0612 N.am    1  UNL1       -0.2995
      3 C          24.9829   22.4172    0.2405 C.2     1  UNL1        0.2473
      4 O          26.3317   21.8552   -0.0984 O.2     1  UNL1       -0.2701
      5 C          25.3061   23.8105    0.6930 C.ar    1  UNL1        0.0708
      6 C          26.5040   24.7492    0.8943 C.ar    1  UNL1        0.0109
      7 C          26.6063   26.1653    1.3781 C.ar    1  UNL1        0.0609
      8 C          25.3680   26.9150    1.7709 C.ar    1  UNL1        0.2610
      9 O          25.4703   28.3312    2.2548 O.2     1  UNL1       -0.2670
     10 N          24.0272   26.2486    1.6798 N.ar    1  UNL1       -0.2940
     11 C          22.6784   26.8108    2.0187 C.3     1  UNL1        0.1091
     12 C          21.1859   26.7529    2.1563 C.3     1  UNL1        0.0249
     13 C          19.8451   26.0865    2.0652 C.3     1  UNL1        0.0067
     14 C          18.9217   24.9436    1.7635 C.3     1  UNL1        0.0264
     15 C          18.5986   23.5504    1.3110 C.ar    1  UNL1       -0.0225
     16 C          19.8369   22.8007    0.9182 C.ar    1  UNL1       -0.0085
     17 C          19.7346   21.3846    0.4344 C.ar    1  UNL1       -0.0208
     18 C          21.2262   20.5501   -0.0148 C.3     1  UNL1        0.0486
     19 C          18.3938   20.7183    0.3433 C.ar    1  UNL1       -0.0042
     20 C          17.1554   21.4680    0.7361 C.ar    1  UNL1       -0.0006
     21 C          17.2578   22.8840    1.2199 C.ar    1  UNL1       -0.0043
     22 C          24.9650   25.1778    1.2066 C.ar    1  UNL1        0.0828
     23 H          24.6750   20.5715   -0.3717 H       1  UNL1        0.1498
     24 C          23.0598   19.2405   -0.6660 C.3     1  UNL1        0.1839
     25 O          23.0354   18.9656   -2.1404 O.3     1  UNL1       -0.3775
     26 H          23.2560   18.0814   -2.4726 H       1  UNL1        0.2106
     27 C          23.4254   18.1481    0.2947 C.3     1  UNL1        0.1337
     28 N          22.3802   17.5620    1.1970 N.4     1  UNL1        0.2553
     29 H          22.3232   17.8583    2.1714 H       1  UNL1        0.2037
     30 H          23.0339   18.2568    1.5578 H       1  UNL1        0.2037
     31 O          19.4960   14.4966   -0.3948 O.3     1  UNL1       -0.4825
     32 C          20.5569   14.0906    0.5847 C.ar    1  UNL1        0.1394
     33 C          21.5184   15.1124    1.1153 C.ar    1  UNL1        0.0602
     34 C          22.5794   14.7065    2.0949 C.ar    1  UNL1       -0.0001
     35 C          22.6789   13.2787    2.5437 C.ar    1  UNL1       -0.0221
     36 C          21.7176   12.2569    2.0131 C.ar    1  UNL1       -0.0012
     37 C          20.6565   12.6628    1.0336 C.ar    1  UNL1        0.0364
     38 C          21.4187   16.5402    0.6664 C.3     1  UNL1        0.0818
     39 C          20.3578   16.9461   -0.3131 C.3     1  UNL1        0.0997
     40 C          19.3964   15.9244   -0.8438 C.3     1  UNL1        0.1389
     41 C          18.2943   15.2114   -1.5698 C.3     1  UNL1        0.0404
     42 C          17.8959   16.4984   -2.2290 C.3     1  UNL1        0.0072
     43 C          18.9980   17.2114   -1.5030 C.3     1  UNL1        0.0404
     44 C          23.7399   12.8727    3.5233 C.3     1  UNL1        0.0264
     45 C          24.1841   11.4419    3.5978 C.3     1  UNL1        0.0050
@<TRIPOS>UNITY_ATOM_ATTR
28 1
charge 1
@<TRIPOS>BOND
     1    31    32    1
     2    32    33   ar
     3    33    34   ar
     4    34    35   ar
     5    35    36   ar
     6    36    37   ar
     7    35    44    1
     8    44    45    1
     9    33    38    1
    10    38    28    1
    11    28    27    1
    12    27    24    1
    13    24    25    1
    14    24     1    1
    15     1     2    1
    16     2     3   am
    17     3     4    2
    18     3     5    1
    19     5     6   ar
    20     6     7   ar
    21     7     8   ar
    22     8     9    2
    23     8    10   ar
    24    10    11    1
    25    11    12    1
    26    12    13    1
    27    13    14    1
    28    14    15    1
    29    15    16   ar
    30    16    17   ar
    31    17    18    1
    32    17    19   ar
    33    19    20   ar
    34    20    21   ar
    35    10    22   ar
    36    38    39    1
    37    39    40    1
    38    40    41    1
    39    41    42    1
    40    42    43    1
    41    40    31    1
    42    37    32   ar
    43     1    18    1
    44    43    40    1
    45     5    22   ar
    46    21    15   ar
    47    28    29    1
    48    28    30    1
    49    25    26    1
    50     2    23    1
@<TRIPOS>MOLECULE
*****
 45 50 0 0 0
SMALL
GASTEIGER

@<TRIPOS>ATOM
      1 C          22.8711   24.2499    1.5209 C.3     1  UNL1        0.1089
      2 N          24.0479   23.5384    0.9218 N.am    1  UNL1       -0.2995
      3 C          24.7077   22.4584    0.1167 C.2     1  UNL1        0.2473
      4 O          26.1631   22.8059    0.2212 O.2     1  UNL1       -0.2701
      5 C          24.7197   21.2236   -0.7349 C.ar    1  UNL1        0.0708
      6 C          25.6955   20.2917   -1.4672 C.ar    1  UNL1        0.0109
      7 C          25.4845   19.0596   -2.2963 C.ar    1  UNL1        0.0609
      8 C          24.0967   18.5390   -2.5262 C.ar    1  UNL1        0.2610
      9 O          23.8857   17.3069   -3.3553 O.2     1  UNL1       -0.2670
     10 N          22.9199   19.2505   -1.9271 N.ar    1  UNL1       -0.2940
     11 C          21.4644   18.9028   -2.0316 C.3     1  UNL1        0.1091
     12 C          20.0037   19.1048   -1.7571 C.3     1  UNL1        0.0249
     13 C          18.8269   19.8162   -1.1580 C.3     1  UNL1        0.0067
     14 C          18.1671   20.8963   -0.3529 C.3     1  UNL1        0.0264
     15 C          18.1551   22.1311    0.4987 C.ar    1  UNL1       -0.0225
     16 C          19.5429   22.6517    0.7286 C.ar    1  UNL1       -0.0085
     17 C          19.7538   23.8838    1.5577 C.ar    1  UNL1       -0.0208
     18 C          21.4103   24.4518    1.7954 C.3     1  UNL1        0.0486
     19 C          18.5770   24.5952    2.1568 C.ar    1  UNL1       -0.0042
     20 C          17.1892   24.0746    1.9269 C.ar    1  UNL1       -0.0006
     21 C          16.9782   22.8425    1.0978 C.ar    1  UNL1       -0.0043
     22 C          24.0817   20.0787   -1.4643 C.ar    1  UNL1        0.0828
     23 H          24.8104   24.0821    1.2256 H       1  UNL1        0.1498
     24 C          23.5091   25.3948    2.2504 C.3     1  UNL1        0.1839
     25 O          24.9464   25.3085    2.6709 O.3     1  UNL1       -0.3775
     26 H          25.3590   26.0488    3.1426 H       1  UNL1        0.2106
     27 C          22.7099   26.6260    2.5593 C.3     1  UNL1        0.1337
     28 N          23.3889   27.9614    2.6355 N.4     1  UNL1        0.2553
     29 H          23.9222   28.2157    3.4669 H       1  UNL1        0.2037
     30 H          23.4605   27.3076    3.4151 H       1  UNL1        0.2037
     31 O          23.0729   30.8454   -0.8043 O.3     1  UNL1       -0.4825
     32 C          24.1516   29.8031   -0.7962 C.ar    1  UNL1        0.1394
     33 C          24.2569   28.8417    0.3504 C.ar    1  UNL1        0.0602
     34 C          25.3355   27.7993    0.3586 C.ar    1  UNL1       -0.0001
     35 C          26.3088   27.7184   -0.7799 C.ar    1  UNL1       -0.0221
     36 C          26.2035   28.6797   -1.9265 C.ar    1  UNL1       -0.0012
     37 C          25.1249   29.7221   -1.9347 C.ar    1  UNL1        0.0364
     38 C          23.2835   28.9228    1.4889 C.3     1  UNL1        0.0818
     39 C          22.2050   29.9651    1.4807 C.3     1  UNL1        0.0997
     40 C          22.0996   30.9264    0.3342 C.3     1  UNL1        0.1389
     41 C          21.6913   32.0229   -0.6045 C.3     1  UNL1        0.0404
     42 C          20.5742   32.4006    0.3226 C.3     1  UNL1        0.0072
     43 C          20.9826   31.3041    1.2612 C.3     1  UNL1        0.0404
     44 C          27.3875   26.6760   -0.7717 C.3     1  UNL1        0.0264
     45 C          27.7035   25.9336    0.4927 C.3     1  UNL1        0.0050
@<TRIPOS>UNITY_ATOM_ATTR
28 1
charge 1
@<TRIPOS>BOND
     1    31    32    1
     2    32    33   ar
     3    33    34   ar
     4    34    35   ar
     5    35    36   ar
     6    36    37   ar
     7    35    44    1
     8    44    45    1
     9    33    38    1
    10    38    28    1
    11    28    27    1
    12    27    24    1
    13    24    25    1
    14    24     1    1
    15     1     2    1
    16     2     3   am
    17     3     4    2
    18     3     5    1
    19     5     6   ar
    20     6     7   ar
    21     7     8   ar
    22     8     9    2
    23     8    10   ar
    24    10    11    1
    25    11    12    1
    26    12    13    1
    27    13    14    1
    28    14    15    1
    29    15    16   ar
    30    16    17   ar
    31    17    18    1
    32    17    19   ar
    33    19    20   ar
    34    20    21   ar
    35    10    22   ar
    36    38    39    1
    37    39    40    1
    38    40    41    1
    39    41    42    1
    40    42    43    1
    41    40    31    1
    42    37    32   ar
    43     1    18    1
    44    43    40    1
    45     5    22   ar
    46    21    15   ar
    47    28    29    1
    48    28    30    1
    49    25    26    1
    50     2    23    1
@<TRIPOS>MOLECULE
*****
 45 50 0 0 0
SMALL
GASTEIGER

@<TRIPOS>ATOM
      1 C          22.7798   20.6604   -0.0723 C.3     1  UNL1        0.1089
      2 N          24.0838   21.3898    0.0605 N.am    1  UNL1       -0.2995
      3 C          24.9413   22.5771    0.3843 C.2     1  UNL1        0.2473
      4 O          26.3262   22.0764    0.0991 O.2     1  UNL1       -0.2701
      5 C          25.1825   23.9873    0.8350 C.ar    1  UNL1        0.0708
      6 C          26.3272   24.9828    1.0703 C.ar    1  UNL1        0.0109
      7 C          26.3458   26.4058    1.5443 C.ar    1  UNL1        0.0609
      8 C          25.0604   27.0995    1.8854 C.ar    1  UNL1        0.2610
      9 O          25.0789   28.5226    2.3594 O.2     1  UNL1       -0.2670
     10 N          23.7564   26.3702    1.7527 N.ar    1  UNL1       -0.2940
     11 C          22.3714   26.8709    2.0378 C.3     1  UNL1        0.1091
     12 C          20.8792   26.7441    2.1224 C.3     1  UNL1        0.0249
     13 C          19.5752   26.0148    1.9896 C.3     1  UNL1        0.0067
     14 C          18.7176   24.8274    1.6658 C.3     1  UNL1        0.0264
     15 C          18.4765   23.4172    1.2150 C.ar    1  UNL1       -0.0225
     16 C          19.7619   22.7235    0.8739 C.ar    1  UNL1       -0.0085
     17 C          19.7433   21.3005    0.3999 C.ar    1  UNL1       -0.0208
     18 C          21.2875   20.5335    0.0122 C.3     1  UNL1        0.0486
     19 C          18.4393   20.5712    0.2671 C.ar    1  UNL1       -0.0042
     20 C          17.1539   21.2649    0.6083 C.ar    1  UNL1       -0.0006
     21 C          17.1725   22.6879    1.0822 C.ar    1  UNL1       -0.0043
     22 C          24.7596   25.3410    1.3234 C.ar    1  UNL1        0.0828
     23 H          24.7423   20.7143   -0.2213 H       1  UNL1        0.1498
     24 C          23.2027   19.3067   -0.5607 C.3     1  UNL1        0.1839
     25 O          22.8003   18.0765    0.1974 O.3     1  UNL1       -0.3775
     26 H          23.0738   17.2010   -0.1184 H       1  UNL1        0.2106
     27 C          24.0280   19.1831   -1.8072 C.3     1  UNL1        0.1337
     28 N          23.7707   18.0611   -2.7689 N.4     1  UNL1        0.2553
     29 H          24.0195   17.1050   -2.5155 H       1  UNL1        0.2037
     30 H          24.1945   17.8679   -1.8615 H       1  UNL1        0.2037
     31 O          21.9008   18.9138   -6.7722 O.3     1  UNL1       -0.4825
     32 C          21.0348   18.5566   -5.6007 C.ar    1  UNL1        0.1394
     33 C          21.6581   18.2724   -4.2663 C.ar    1  UNL1        0.0602
     34 C          20.7921   17.9152   -3.0947 C.ar    1  UNL1       -0.0001
     35 C          19.3028   17.8422   -3.2577 C.ar    1  UNL1       -0.0221
     36 C          18.6794   18.1264   -4.5921 C.ar    1  UNL1       -0.0012
     37 C          19.5454   18.4836   -5.7636 C.ar    1  UNL1        0.0364
     38 C          23.1475   18.3454   -4.1034 C.3     1  UNL1        0.0818
     39 C          24.0134   18.7025   -5.2748 C.3     1  UNL1        0.0997
     40 C          23.3902   18.9868   -6.6092 C.3     1  UNL1        0.1389
     41 C          23.1401   19.3256   -8.0489 C.3     1  UNL1        0.0404
     42 C          24.6149   19.4919   -8.2660 C.3     1  UNL1        0.0072
     43 C          24.8650   19.1531   -6.8263 C.3     1  UNL1        0.0404
     44 C          18.4367   17.4850   -2.0862 C.3     1  UNL1        0.0264
     45 C          18.2097   16.0450   -1.7327 C.3     1  UNL1        0.0050
@<TRIPOS>UNITY_ATOM_ATTR
28 1
charge 1
@<TRIPOS>BOND
     1    31    32    1
     2    32    33   ar
     3    33    34   ar
     4    34    35   ar
     5    35    36   ar
     6    36    37   ar
     7    35    44    1
     8    44    45    1
     9    33    38    1
    10    38    28    1
    11    28    27    1
    12    27    24    1
    13    24    25    1
    14    24     1    1
    15     1     2    1
    16     2     3   am
    17     3     4    2
    18     3     5    1
    19     5     6   ar
    20     6     7   ar
    21     7     8   ar
    22     8     9    2
    23     8    10   ar
    24    10    11    1
    25    11    12    1
    26    12    13    1
    27    13    14    1
    28    14    15    1
    29    15    16   ar
    30    16    17   ar
    31    17    18    1
    32    17    19   ar
    33    19    20   ar
    34    20    21   ar
    35    10    22   ar
    36    38    39    1
    37    39    40    1
    38    40    41    1
    39    41    42    1
    40    42    43    1
    41    40    31    1
    42    37    32   ar
    43     1    18    1
    44    43    40    1
    45     5    22   ar
    46    21    15   ar
    47    28    29    1
    48    28    30    1
    49    25    26    1
    50     2    23    1
@<TRIPOS>MOLECULE
*****
 45 50 0 0 0
SMALL
GASTEIGER

@<TRIPOS>ATOM
      1 C          21.3944   15.4585    1.0484 C.3     1  UNL1        0.1089
      2 N          20.2525   15.6941    0.1047 N.am    1  UNL1       -0.2995
      3 C          19.1409   15.2636   -0.8057 C.2     1  UNL1        0.2473
      4 O          18.5783   16.5685   -1.2859 O.2     1  UNL1       -0.2701
      5 C          18.2796   14.2522   -1.5025 C.ar    1  UNL1        0.0708
      6 C          17.0961   14.1651   -2.4764 C.ar    1  UNL1        0.0109
      7 C          16.3597   13.0001   -3.0683 C.ar    1  UNL1        0.0609
      8 C          16.7652   11.5995   -2.7163 C.ar    1  UNL1        0.2610
      9 O          16.0288   10.4343   -3.3082 O.2     1  UNL1       -0.2670
     10 N          17.9071   11.3639   -1.7726 N.ar    1  UNL1       -0.2940
     11 C          18.4697   10.0589   -1.2924 C.3     1  UNL1        0.1091
     12 C          19.4155    9.2040   -0.5023 C.3     1  UNL1        0.0249
     13 C          20.5574    8.9685    0.4415 C.3     1  UNL1        0.0067
     14 C          21.6691    9.3990    1.3519 C.3     1  UNL1        0.0264
     15 C          22.5304   10.4103    2.0486 C.ar    1  UNL1       -0.0225
     16 C          22.1249   11.8109    1.6967 C.ar    1  UNL1       -0.0085
     17 C          22.8613   12.9760    2.2886 C.ar    1  UNL1       -0.0208
     18 C          22.3403   14.6036    1.8387 C.3     1  UNL1        0.0486
     19 C          24.0031   12.7404    3.2323 C.ar    1  UNL1       -0.0042
     20 C          24.4086   11.3399    3.5843 C.ar    1  UNL1       -0.0006
     21 C          23.6722   10.1748    2.9924 C.ar    1  UNL1       -0.0043
     22 C          17.8392   12.8605   -1.8475 C.ar    1  UNL1        0.0828
     23 H          20.2080   16.6763    0.0555 H       1  UNL1        0.1498
     24 C          21.8348   16.8503    1.3935 C.3     1  UNL1        0.1839
     25 O          21.3505   17.4987    2.6565 O.3     1  UNL1       -0.3775
     26 H          21.6353   18.3987    2.8797 H       1  UNL1        0.2106
     27 C          22.7593   17.5937    0.4756 C.3     1  UNL1        0.1337
     28 N          22.4086   18.9786    0.0182 N.4     1  UNL1        0.2553
     29 H          22.8914   19.7845    0.4155 H       1  UNL1        0.2037
     30 H          23.1299   18.8428    0.7265 H       1  UNL1        0.2037
     31 O          19.2263   19.5777   -3.1064 O.3     1  UNL1       -0.4825
     32 C          18.9839   20.0217   -1.6943 C.ar    1  UNL1        0.1394
     33 C          20.0447   19.8220   -0.6528 C.ar    1  UNL1        0.0602
     34 C          19.8023   20.2661    0.7594 C.ar    1  UNL1       -0.0001
     35 C          18.4992   20.9098    1.1299 C.ar    1  UNL1       -0.0221
     36 C          17.4383   21.1095    0.0884 C.ar    1  UNL1       -0.0012
     37 C          17.6807   20.6655   -1.3238 C.ar    1  UNL1        0.0364
     38 C          21.3479   19.1783   -1.0233 C.3     1  UNL1        0.0818
     39 C          21.5902   18.7342   -2.4354 C.3     1  UNL1        0.0997
     40 C          20.5295   18.9339   -3.4770 C.3     1  UNL1        0.1389
     41 C          19.7358   18.9642   -4.7494 C.3     1  UNL1        0.0404
     42 C          20.8722   18.3059   -5.4740 C.3     1  UNL1        0.0072
     43 C          21.6659   18.2756   -4.2016 C.3     1  UNL1        0.0404
     44 C          18.2567   21.3539    2.5420 C.3     1  UNL1        0.0264
     45 C          17.9010   20.3462    3.5946 C.3     1  UNL1        0.0050
@<TRIPOS>UNITY_ATOM_ATTR
28 1
charge 1
@<TRIPOS>BOND
     1    31    32    1
     2    32    33   ar
     3    33    34   ar
     4    34    35   ar
     5    35    36   ar
     6    36    37   ar
     7    35    44    1
     8    44    45    1
     9    33    38    1
    10    38    28    1
    11    28    27    1
    12    27    24    1
    13    24    25    1
    14    24     1    1
    15     1     2    1
    16     2     3   am
    17     3     4    2
    18     3     5    1
    19     5     6   ar
    20     6     7   ar
    21     7     8   ar
    22     8     9    2
    23     8    10   ar
    24    10    11    1
    25    11    12    1
    26    12    13    1
    27    13    14    1
    28    14    15    1
    29    15    16   ar
    30    16    17   ar
    31    17    18    1
    32    17    19   ar
    33    19    20   ar
    34    20    21   ar
    35    10    22   ar
    36    38    39    1
    37    39    40    1
    38    40    41    1
    39    41    42    1
    40    42    43    1
    41    40    31    1
    42    37    32   ar
    43     1    18    1
    44    43    40    1
    45     5    22   ar
    46    21    15   ar
    47    28    29    1
    48    28    30    1
    49    25    26    1
    50     2    23    1
@<TRIPOS>MOLECULE
*****
 45 50 0 0 0
SMALL
GASTEIGER

@<TRIPOS>ATOM
      1 C          22.8255   20.7028    0.0886 C.3     1  UNL1        0.1089
      2 N          24.1451   21.4149    0.1279 N.am    1  UNL1       -0.2995
      3 C          25.0347   22.6003    0.3592 C.2     1  UNL1        0.2473
      4 O          26.3968   22.0646    0.0309 O.2     1  UNL1       -0.2701
      5 C          25.3181   24.0242    0.7365 C.ar    1  UNL1        0.0708
      6 C          26.4875   25.0093    0.8741 C.ar    1  UNL1        0.0109
      7 C          26.5499   26.4507    1.2846 C.ar    1  UNL1        0.0609
      8 C          25.2927   27.1799    1.6556 C.ar    1  UNL1        0.2610
      9 O          25.3551   28.6213    2.0661 O.2     1  UNL1       -0.2670
     10 N          23.9732   26.4677    1.6163 N.ar    1  UNL1       -0.2940
     11 C          22.6110   27.0035    1.9445 C.3     1  UNL1        0.1091
     12 C          21.1229   26.9056    2.1049 C.3     1  UNL1        0.0249
     13 C          19.8033   26.1935    2.0655 C.3     1  UNL1        0.0067
     14 C          18.9137   25.0081    1.8343 C.3     1  UNL1        0.0264
     15 C          18.6303   23.5842    1.4570 C.ar    1  UNL1       -0.0225
     16 C          19.8874   22.8550    1.0859 C.ar    1  UNL1       -0.0085
     17 C          19.8250   21.4137    0.6754 C.ar    1  UNL1       -0.0208
     18 C          21.3373   20.6049    0.2489 C.3     1  UNL1        0.0486
     19 C          18.5055   20.7015    0.6361 C.ar    1  UNL1       -0.0042
     20 C          17.2483   21.4307    1.0072 C.ar    1  UNL1       -0.0006
     21 C          17.3107   22.8721    1.4176 C.ar    1  UNL1       -0.0043
     22 C          24.9393   25.4044    1.1851 C.ar    1  UNL1        0.0828
     23 H          24.7792   20.7170   -0.1550 H       1  UNL1        0.1498
     24 C          23.2044   19.3225   -0.3601 C.3     1  UNL1        0.1839
     25 O          23.5328   18.2677    0.6547 O.3     1  UNL1       -0.3775
     26 H          23.7778   17.3752    0.3646 H       1  UNL1        0.2106
     27 C          23.2548   18.9970   -1.8235 C.3     1  UNL1        0.1337
     28 N          22.9950   17.5950   -2.2894 N.4     1  UNL1        0.2553
     29 H          23.7763   16.9807   -2.5187 H       1  UNL1        0.2037
     30 H          23.9530   17.9340   -2.2019 H       1  UNL1        0.2037
     31 O          18.7685   16.0994   -2.6752 O.3     1  UNL1       -0.4825
     32 C          19.4324   16.7789   -3.8360 C.ar    1  UNL1        0.1394
     33 C          20.8413   17.2775   -3.7073 C.ar    1  UNL1        0.0602
     34 C          21.5054   17.9571   -4.8680 C.ar    1  UNL1       -0.0001
     35 C          20.7605   18.1381   -6.1573 C.ar    1  UNL1       -0.0221
     36 C          19.3517   17.6396   -6.2861 C.ar    1  UNL1       -0.0012
     37 C          18.6876   16.9600   -5.1253 C.ar    1  UNL1        0.0364
     38 C          21.5862   17.0964   -2.4179 C.3     1  UNL1        0.0818
     39 C          20.9222   16.4169   -1.2573 C.3     1  UNL1        0.0997
     40 C          19.5133   15.9184   -1.3859 C.3     1  UNL1        0.1389
     41 C          18.1645   15.3082   -1.1440 C.3     1  UNL1        0.0404
     42 C          18.5742   14.9573    0.2556 C.3     1  UNL1        0.0072
     43 C          19.9230   15.5674    0.0137 C.3     1  UNL1        0.0404
     44 C          21.4245   18.8176   -7.3181 C.3     1  UNL1        0.0264
     45 C          22.8878   18.6083   -7.5730 C.3     1  UNL1        0.0050
@<TRIPOS>UNITY_ATOM_ATTR
28 1
charge 1
@<TRIPOS>BOND
     1    31    32    1
     2    32    33   ar
     3    33    34   ar
     4    34    35   ar
     5    35    36   ar
     6    36    37   ar
     7    35    44    1
     8    44    45    1
     9    33    38    1
    10    38    28    1
    11    28    27    1
    12    27    24    1
    13    24    25    1
    14    24     1    1
    15     1     2    1
    16     2     3   am
    17     3     4    2
    18     3     5    1
    19     5     6   ar
    20     6     7   ar
    21     7     8   ar
    22     8     9    2
    23     8    10   ar
    24    10    11    1
    25    11    12    1
    26    12    13    1
    27    13    14    1
    28    14    15    1
    29    15    16   ar
    30    16    17   ar
    31    17    18    1
    32    17    19   ar
    33    19    20   ar
    34    20    21   ar
    35    10    22   ar
    36    38    39    1
    37    39    40    1
    38    40    41    1
    39    41    42    1
    40    42    43    1
    41    40    31    1
    42    37    32   ar
    43     1    18    1
    44    43    40    1
    45     5    22   ar
    46    21    15   ar
    47    28    29    1
    48    28    30    1
    49    25    26    1
    50     2    23    1
@<TRIPOS>MOLECULE
*****
 45 50 0 0 0
SMALL
GASTEIGER

@<TRIPOS>ATOM
      1 C          17.1686   16.7104   -3.4364 C.3     1  UNL1        0.1089
      2 N          16.4187   16.6377   -4.7335 N.am    1  UNL1       -0.2995
      3 C          15.6551   15.9332   -5.8154 C.2     1  UNL1        0.2473
      4 O          15.3460   17.0393   -6.7803 O.2     1  UNL1       -0.2701
      5 C          15.0290   14.7364   -6.4680 C.ar    1  UNL1        0.0708
      6 C          14.2350   14.3429   -7.7215 C.ar    1  UNL1        0.0109
      7 C          13.6845   13.0312   -8.1971 C.ar    1  UNL1        0.0609
      8 C          13.8839   11.7921   -7.3756 C.ar    1  UNL1        0.2610
      9 O          13.3334   10.4803   -7.8511 O.2     1  UNL1       -0.2670
     10 N          14.6338   11.8648   -6.0785 N.ar    1  UNL1       -0.2940
     11 C          14.9429   10.7586   -5.1136 C.3     1  UNL1        0.1091
     12 C          15.5305   10.1851   -3.8584 C.3     1  UNL1        0.0249
     13 C          16.2805   10.2578   -2.5613 C.3     1  UNL1        0.0067
     14 C          17.0441   10.9623   -1.4793 C.3     1  UNL1        0.0264
     15 C          17.6701   12.1591   -0.8268 C.ar    1  UNL1       -0.0225
     16 C          17.4707   13.3982   -1.6483 C.ar    1  UNL1       -0.0085
     17 C          18.0212   14.7099   -1.1728 C.ar    1  UNL1       -0.0208
     18 C          17.7563   16.1369   -2.1811 C.3     1  UNL1        0.0486
     19 C          18.7711   14.7826    0.1243 C.ar    1  UNL1       -0.0042
     20 C          18.9705   13.5436    0.9458 C.ar    1  UNL1       -0.0006
     21 C          18.4200   12.2318    0.4702 C.ar    1  UNL1       -0.0043
     22 C          14.6645   13.2845   -6.5619 C.ar    1  UNL1        0.0828
     23 H          16.4389   17.5695   -5.0507 H       1  UNL1        0.1498
     24 C          17.5331   18.1624   -3.3425 C.3     1  UNL1        0.1839
     25 O          16.4987   19.1707   -2.9385 O.3     1  UNL1       -0.3775
     26 H          16.7344   20.1097   -2.8777 H       1  UNL1        0.2106
     27 C          18.9321   18.6061   -3.6527 C.3     1  UNL1        0.1337
     28 N          19.6682   19.4923   -2.6921 N.4     1  UNL1        0.2553
     29 H          19.9316   20.4378   -2.9698 H       1  UNL1        0.2037
     30 H          19.4310   19.8352   -3.6230 H       1  UNL1        0.2037
     31 O          20.7144   17.9798    1.4149 O.3     1  UNL1       -0.4825
     32 C          19.7749   19.1387    1.2593 C.ar    1  UNL1        0.1394
     33 C          19.4262   19.6429   -0.1097 C.ar    1  UNL1        0.0602
     34 C          18.4867   20.8019   -0.2654 C.ar    1  UNL1       -0.0001
     35 C          17.8960   21.4566    0.9480 C.ar    1  UNL1       -0.0221
     36 C          18.2447   20.9525    2.3170 C.ar    1  UNL1       -0.0012
     37 C          19.1842   19.7935    2.4727 C.ar    1  UNL1        0.0364
     38 C          20.0169   18.9881   -1.3231 C.3     1  UNL1        0.0818
     39 C          20.9564   17.8292   -1.1675 C.3     1  UNL1        0.0997
     40 C          21.3051   17.3250    0.2015 C.3     1  UNL1        0.1389
     41 C          21.8706   16.5669    1.3658 C.3     1  UNL1        0.0404
     42 C          22.6337   15.6860    0.4217 C.3     1  UNL1        0.0072
     43 C          22.0682   16.4440   -0.7427 C.3     1  UNL1        0.0404
     44 C          16.9565   22.6156    0.7924 C.3     1  UNL1        0.0264
     45 C          17.0463   23.7848    1.7279 C.3     1  UNL1        0.0050
@<TRIPOS>UNITY_ATOM_ATTR
28 1
charge 1
@<TRIPOS>BOND
     1    31    32    1
     2    32    33   ar
     3    33    34   ar
     4    34    35   ar
     5    35    36   ar
     6    36    37   ar
     7    35    44    1
     8    44    45    1
     9    33    38    1
    10    38    28    1
    11    28    27    1
    12    27    24    1
    13    24    25    1
    14    24     1    1
    15     1     2    1
    16     2     3   am
    17     3     4    2
    18     3     5    1
    19     5     6   ar
    20     6     7   ar
    21     7     8   ar
    22     8     9    2
    23     8    10   ar
    24    10    11    1
    25    11    12    1
    26    12    13    1
    27    13    14    1
    28    14    15    1
    29    15    16   ar
    30    16    17   ar
    31    17    18    1
    32    17    19   ar
    33    19    20   ar
    34    20    21   ar
    35    10    22   ar
    36    38    39    1
    37    39    40    1
    38    40    41    1
    39    41    42    1
    40    42    43    1
    41    40    31    1
    42    37    32   ar
    43     1    18    1
    44    43    40    1
    45     5    22   ar
    46    21    15   ar
    47    28    29    1
    48    28    30    1
    49    25    26    1
    50     2    23    1
@<TRIPOS>MOLECULE
*****
 45 50 0 0 0
SMALL
GASTEIGER

@<TRIPOS>ATOM
      1 C          22.8170   19.0378   -0.2686 C.3     1  UNL1        0.1089
      2 N          23.7041   18.1675    0.5714 N.am    1  UNL1       -0.2995
      3 C          24.0777   16.8943    1.2709 C.2     1  UNL1        0.2473
      4 O          25.3976   17.2329    1.8980 O.2     1  UNL1       -0.2701
      5 C          23.8640   15.4703    1.6914 C.ar    1  UNL1        0.0708
      6 C          24.5374   14.3545    2.5026 C.ar    1  UNL1        0.0109
      7 C          24.1316   12.9432    2.8082 C.ar    1  UNL1        0.0609
      8 C          22.8387   12.4022    2.2738 C.ar    1  UNL1        0.2610
      9 O          22.4327   10.9908    2.5794 O.2     1  UNL1       -0.2670
     10 N          21.9516   13.2725    1.4338 N.ar    1  UNL1       -0.2940
     11 C          20.6316   12.9339    0.8067 C.3     1  UNL1        0.1091
     12 C          19.4069   13.2289   -0.0075 C.3     1  UNL1        0.0249
     13 C          18.5198   14.0992   -0.8475 C.3     1  UNL1        0.0067
     14 C          18.1461   15.3725   -1.5470 C.3     1  UNL1        0.0264
     15 C          18.3599   16.7964   -1.9674 C.ar    1  UNL1       -0.0225
     16 C          19.6528   17.3374   -1.4330 C.ar    1  UNL1       -0.0085
     17 C          20.0587   18.7487   -1.7386 C.ar    1  UNL1       -0.0208
     18 C          21.5922   19.3329   -1.0828 C.3     1  UNL1        0.0486
     19 C          19.1716   19.6190   -2.5786 C.ar    1  UNL1       -0.0042
     20 C          17.8787   19.0780   -3.1131 C.ar    1  UNL1       -0.0006
     21 C          17.4728   17.6667   -2.8075 C.ar    1  UNL1       -0.0043
     22 C          23.1052   14.1778    1.7495 C.ar    1  UNL1        0.0828
     23 H          24.4612   18.7616    0.7786 H       1  UNL1        0.1498
     24 C          23.5758   20.3304   -0.3267 C.3     1  UNL1        0.1839
     25 O          23.0752   21.5284    0.4245 O.3     1  UNL1       -0.3775
     26 H          23.5659   22.3643    0.3869 H       1  UNL1        0.2106
     27 C          24.8353   20.4250   -1.1360 C.3     1  UNL1        0.1337
     28 N          25.1091   21.6503   -1.9568 N.4     1  UNL1        0.2553
     29 H          24.6322   21.7839   -2.8485 H       1  UNL1        0.2037
     30 H          24.4460   20.9507   -2.2904 H       1  UNL1        0.2037
     31 O          28.0345   24.7367   -0.4852 O.3     1  UNL1       -0.4825
     32 C          28.2844   24.0245   -1.7815 C.ar    1  UNL1        0.1394
     33 C          27.3092   22.9956   -2.2720 C.ar    1  UNL1        0.0602
     34 C          27.5590   22.2834   -3.5683 C.ar    1  UNL1       -0.0001
     35 C          28.7840   22.5999   -4.3739 C.ar    1  UNL1       -0.0221
     36 C          29.7592   23.6287   -3.8835 C.ar    1  UNL1       -0.0012
     37 C          29.5094   24.3410   -2.5872 C.ar    1  UNL1        0.0364
     38 C          26.0842   22.6791   -1.4663 C.3     1  UNL1        0.0818
     39 C          25.8344   23.3913   -0.1701 C.3     1  UNL1        0.0997
     40 C          26.8095   24.4201    0.3205 C.3     1  UNL1        0.1389
     41 C          27.5311   25.4730    1.1084 C.3     1  UNL1        0.0404
     42 C          26.4563   25.4274    2.1537 C.3     1  UNL1        0.0072
     43 C          25.7347   24.3746    1.3658 C.3     1  UNL1        0.0404
     44 C          29.0338   21.8877   -5.6703 C.3     1  UNL1        0.0264
     45 C          30.4337   21.7449   -6.1899 C.3     1  UNL1        0.0050
@<TRIPOS>UNITY_ATOM_ATTR
28 1
charge 1
@<TRIPOS>BOND
     1    31    32    1
     2    32    33   ar
     3    33    34   ar
     4    34    35   ar
     5    35    36   ar
     6    36    37   ar
     7    35    44    1
     8    44    45    1
     9    33    38    1
    10    38    28    1
    11    28    27    1
    12    27    24    1
    13    24    25    1
    14    24     1    1
    15     1     2    1
    16     2     3   am
    17     3     4    2
    18     3     5    1
    19     5     6   ar
    20     6     7   ar
    21     7     8   ar
    22     8     9    2
    23     8    10   ar
    24    10    11    1
    25    11    12    1
    26    12    13    1
    27    13    14    1
    28    14    15    1
    29    15    16   ar
    30    16    17   ar
    31    17    18    1
    32    17    19   ar
    33    19    20   ar
    34    20    21   ar
    35    10    22   ar
    36    38    39    1
    37    39    40    1
    38    40    41    1
    39    41    42    1
    40    42    43    1
    41    40    31    1
    42    37    32   ar
    43     1    18    1
    44    43    40    1
    45     5    22   ar
    46    21    15   ar
    47    28    29    1
    48    28    30    1
    49    25    26    1
    50     2    23    1
@<TRIPOS>MOLECULE
*****
 45 50 0 0 0
SMALL
GASTEIGER

@<TRIPOS>ATOM
      1 C          22.9976   19.0015   -0.3965 C.3     1  UNL1        0.1089
      2 N          23.8745   18.1445    0.4676 N.am    1  UNL1       -0.2995
      3 C          24.2241   16.8940    1.2185 C.2     1  UNL1        0.2473
      4 O          25.5643   17.2218    1.8071 O.2     1  UNL1       -0.2701
      5 C          23.9774   15.4975    1.7075 C.ar    1  UNL1        0.0708
      6 C          24.6332   14.4004    2.5577 C.ar    1  UNL1        0.0109
      7 C          24.1928   13.0170    2.9346 C.ar    1  UNL1        0.0609
      8 C          22.8754   12.4905    2.4474 C.ar    1  UNL1        0.2610
      9 O          22.4349   11.1070    2.8243 O.2     1  UNL1       -0.2670
     10 N          21.9986   13.3475    1.5833 N.ar    1  UNL1       -0.2940
     11 C          20.6583   13.0197    0.9947 C.3     1  UNL1        0.1091
     12 C          19.4279   13.3133    0.1885 C.3     1  UNL1        0.0249
     13 C          18.5511   14.1703   -0.6756 C.3     1  UNL1        0.0067
     14 C          18.2013   15.4209   -1.4265 C.3     1  UNL1        0.0264
     15 C          18.4481   16.8173   -1.9154 C.ar    1  UNL1       -0.0225
     16 C          19.7655   17.3438   -1.4282 C.ar    1  UNL1       -0.0085
     17 C          20.2059   18.7272   -1.8051 C.ar    1  UNL1       -0.0208
     18 C          21.7672   19.2952   -1.2027 C.3     1  UNL1        0.0486
     19 C          19.3290   19.5842   -2.6692 C.ar    1  UNL1       -0.0042
     20 C          18.0117   19.0577   -3.1564 C.ar    1  UNL1       -0.0006
     21 C          17.5712   17.6743   -2.7795 C.ar    1  UNL1       -0.0043
     22 C          23.1831   14.2319    1.8377 C.ar    1  UNL1        0.0828
     23 H          24.6519   18.7250    0.6346 H       1  UNL1        0.1498
     24 C          23.7919   20.2673   -0.5267 C.3     1  UNL1        0.1839
     25 O          23.4799   21.4422    0.3521 O.3     1  UNL1       -0.3775
     26 H          23.9936   22.2608    0.2679 H       1  UNL1        0.2106
     27 C          24.8982   20.3581   -1.5357 C.3     1  UNL1        0.1337
     28 N          25.0229   21.5745   -2.4044 N.4     1  UNL1        0.2553
     29 H          24.1880   22.0058   -2.8010 H       1  UNL1        0.2037
     30 H          24.1032   21.1786   -2.2103 H       1  UNL1        0.2037
     31 O          29.0807   23.3210   -3.2608 O.3     1  UNL1       -0.4825
     32 C          28.3132   23.7653   -2.0512 C.ar    1  UNL1        0.1394
     33 C          26.9605   23.1831   -1.7657 C.ar    1  UNL1        0.0602
     34 C          26.1928   23.6275   -0.5561 C.ar    1  UNL1       -0.0001
     35 C          26.7778   24.6540    0.3680 C.ar    1  UNL1       -0.0221
     36 C          28.1304   25.2362    0.0827 C.ar    1  UNL1       -0.0012
     37 C          28.8981   24.7918   -1.1270 C.ar    1  UNL1        0.0364
     38 C          26.3755   22.1566   -2.6899 C.3     1  UNL1        0.0818
     39 C          27.1432   21.7123   -3.8995 C.3     1  UNL1        0.0997
     40 C          28.4958   22.2944   -4.1850 C.3     1  UNL1        0.1389
     41 C          29.8297   22.6370   -4.7797 C.3     1  UNL1        0.0404
     42 C          29.5815   21.6661   -5.8957 C.3     1  UNL1        0.0072
     43 C          28.2476   21.3236   -5.3011 C.3     1  UNL1        0.0404
     44 C          26.0101   25.0984    1.5777 C.3     1  UNL1        0.0264
     45 C          26.3352   26.4079    2.2330 C.3     1  UNL1        0.0050
@<TRIPOS>UNITY_ATOM_ATTR
28 1
charge 1
@<TRIPOS>BOND
     1    31    32    1
     2    32    33   ar
     3    33    34   ar
     4    34    35   ar
     5    35    36   ar
     6    36    37   ar
     7    35    44    1
     8    44    45    1
     9    33    38    1
    10    38    28    1
    11    28    27    1
    12    27    24    1
    13    24    25    1
    14    24     1    1
    15     1     2    1
    16     2     3   am
    17     3     4    2
    18     3     5    1
    19     5     6   ar
    20     6     7   ar
    21     7     8   ar
    22     8     9    2
    23     8    10   ar
    24    10    11    1
    25    11    12    1
    26    12    13    1
    27    13    14    1
    28    14    15    1
    29    15    16   ar
    30    16    17   ar
    31    17    18    1
    32    17    19   ar
    33    19    20   ar
    34    20    21   ar
    35    10    22   ar
    36    38    39    1
    37    39    40    1
    38    40    41    1
    39    41    42    1
    40    42    43    1
    41    40    31    1
    42    37    32   ar
    43     1    18    1
    44    43    40    1
    45     5    22   ar
    46    21    15   ar
    47    28    29    1
    48    28    30    1
    49    25    26    1
    50     2    23    1
@<TRIPOS>MOLECULE
*****
 45 48 0 0 0
SMALL
GASTEIGER

@<TRIPOS>ATOM
      1 C          21.9658   26.1677    1.6422 C.3     1  UNL1        0.1086
      2 C          20.1424   24.3688    1.2076 C.2     1  UNL1        0.2220
      3 O          19.3226   25.3799    0.4620 O.2     1  UNL1       -0.2751
      4 N          21.4640   24.7627    1.7976 N.am    1  UNL1       -0.3030
      5 H          22.0020   24.0991    2.2870 H       1  UNL1        0.1495
      6 C          20.1049   20.4116    1.5062 C.3     1  UNL1        0.0172
      7 C          20.6067   21.8166    1.3507 C.3     1  UNL1        0.0107
      8 C          19.6405   22.9639    1.3630 C.3     1  UNL1        0.0765
      9 C          18.1723   22.7061    1.5309 C.3     1  UNL1        0.0091
     10 C          17.6705   21.3012    1.6863 C.3     1  UNL1        0.0005
     11 C          18.6367   20.1539    1.6740 C.3     1  UNL1        0.0016
     12 C          21.0711   19.2644    1.4938 C.3     1  UNL1        0.0603
     13 C          21.1589   19.3222    2.9901 C.3     1  UNL1        0.0199
     14 C          20.9833   19.2065   -0.0025 C.3     1  UNL1        0.0199
     15 O          24.0087   19.7807    1.1707 O.2     1  UNL1       -0.2749
     16 C          23.5061   18.3753    1.3199 C.2     1  UNL1        0.2255
     17 N          22.0374   18.1171    1.4814 N.am    1  UNL1       -0.2827
     18 C          21.5349   16.7117    1.6306 C.3     1  UNL1        0.0933
     19 C          22.5011   15.5644    1.6182 C.3     1  UNL1        0.0220
     20 C          23.9698   15.8226    1.4566 C.3     1  UNL1        0.0113
     21 C          24.4724   17.2280    1.3075 C.3     1  UNL1        0.0853
     22 C          21.5789   27.2173    2.6415 C.3     1  UNL1        0.1839
     23 O          21.7179   26.9425    4.1096 O.3     1  UNL1       -0.3775
     24 H          21.4677   27.6212    4.7558 H       1  UNL1        0.2106
     25 C          21.0531   28.5415    2.1728 C.3     1  UNL1        0.1339
     26 N          21.9555   29.7395    2.1447 N.4     1  UNL1        0.2597
     27 H          22.1843   30.2261    3.0114 H       1  UNL1        0.2040
     28 H          22.5691   30.5540    2.1255 H       1  UNL1        0.2040
     29 C          22.5213   30.2218    0.8419 C.3     1  UNL1        0.1298
     30 C          23.9736   30.0108    0.5310 C.ar    1  UNL1        0.0322
     31 C          24.8703   29.3606    1.5424 C.ar    1  UNL1       -0.0029
     32 C          26.3225   29.1497    1.2314 C.ar    1  UNL1       -0.0226
     33 C          26.8778   29.5889   -0.0909 C.ar    1  UNL1       -0.0043
     34 C          25.9811   30.2391   -1.1023 C.ar    1  UNL1       -0.0004
     35 C          24.5289   30.4501   -0.7913 C.ar    1  UNL1        0.0014
     36 C          27.2194   28.4994    2.2429 C.3     1  UNL1        0.0223
     37 C          28.5947   29.0460    2.4870 C.3     1  UNL1        0.0047
     38 C          26.7408   27.3027    3.0101 C.3     1  UNL1        0.0047
     39 C          22.8546   26.5232    0.4873 C.3     1  UNL1        0.0486
     40 C          24.2263   25.9249    0.3847 C.ar    1  UNL1       -0.0204
     41 C          25.1559   26.3633   -0.7079 C.ar    1  UNL1       -0.0042
     42 C          26.5276   25.7651   -0.8105 C.ar    1  UNL1       -0.0003
     43 C          26.9697   24.7285    0.1795 C.ar    1  UNL1       -0.0000
     44 C          26.0401   24.2901    1.2720 C.ar    1  UNL1       -0.0003
     45 C          24.6684   24.8884    1.3746 C.ar    1  UNL1       -0.0042
@<TRIPOS>UNITY_ATOM_ATTR
26 1
charge 1
@<TRIPOS>BOND
     1    15    16    2
     2    16    17   am
     3    17    18    1
     4    18    19    1
     5    19    20    1
     6    20    21    1
     7    17    12    1
     8    12    13    1
     9    12    14    1
    10     6    12    1
    11     6     7    1
    12     7     8    1
    13     8     9    1
    14     9    10    1
    15    10    11    1
    16     8     2    1
    17     2     3    2
    18     2     4   am
    19     4     1    1
    20     1    22    1
    21    22    23    1
    22    22    25    1
    23    25    26    1
    24    26    29    1
    25    29    30    1
    26    30    31   ar
    27    31    32   ar
    28    32    33   ar
    29    33    34   ar
    30    34    35   ar
    31    32    36    1
    32    36    37    1
    33    36    38    1
    34     1    39    1
    35    39    40    1
    36    40    41   ar
    37    41    42   ar
    38    42    43   ar
    39    43    44   ar
    40    44    45   ar
    41    21    16    1
    42    11     6    1
    43    35    30   ar
    44    45    40   ar
    45     4     5    1
    46    23    24    1
    47    26    27    1
    48    26    28    1
@<TRIPOS>MOLECULE
*****
 45 48 0 0 0
SMALL
GASTEIGER

@<TRIPOS>ATOM
      1 C          23.5475   27.5839    1.6632 C.3     1  UNL1        0.1086
      2 C          21.8001   25.7259    2.1574 C.2     1  UNL1        0.2220
      3 O          22.5257   25.3803    3.4240 O.2     1  UNL1       -0.2751
      4 N          22.3110   26.8277    1.2770 N.am    1  UNL1       -0.3030
      5 H          21.8347   27.0545    0.4458 H       1  UNL1        0.1495
      6 C          19.4079   22.7452    1.0882 C.3     1  UNL1        0.0172
      7 C          20.6444   23.5015    1.4744 C.3     1  UNL1        0.0107
      8 C          20.5636   24.9696    1.7713 C.3     1  UNL1        0.0765
      9 C          19.2463   25.6814    1.6820 C.3     1  UNL1        0.0091
     10 C          18.0098   24.9252    1.2959 C.3     1  UNL1        0.0005
     11 C          18.0906   23.4570    0.9989 C.3     1  UNL1        0.0016
     12 C          19.4888   21.2771    0.7913 C.3     1  UNL1        0.0603
     13 C          20.9759   21.3913    0.6319 C.3     1  UNL1        0.0199
     14 C          18.0017   21.1630    0.9507 C.3     1  UNL1        0.0199
     15 O          19.0153   20.2828   -1.9993 O.2     1  UNL1       -0.2749
     16 C          19.3329   19.3118   -0.9009 C.2     1  UNL1        0.2255
     17 N          19.5696   19.8090    0.4944 N.am    1  UNL1       -0.2827
     18 C          19.8871   18.8381    1.5928 C.3     1  UNL1        0.0933
     19 C          19.9679   17.3700    1.2959 C.3     1  UNL1        0.0220
     20 C          19.7312   16.8728   -0.0993 C.3     1  UNL1        0.0113
     21 C          19.4137   17.8438   -1.1977 C.3     1  UNL1        0.0853
     22 C          24.8727   26.8825    1.7069 C.3     1  UNL1        0.1839
     23 O          25.8297   27.1565    2.8290 O.3     1  UNL1       -0.3775
     24 H          26.6866   26.7029    2.8573 H       1  UNL1        0.2106
     25 C          25.2408   25.9071    0.6286 C.3     1  UNL1        0.1339
     26 N          24.8884   24.4566    0.7770 N.4     1  UNL1        0.2597
     27 H          23.9575   24.1880    1.0959 H       1  UNL1        0.2040
     28 H          24.6487   23.4703    0.8779 H       1  UNL1        0.2040
     29 C          25.9049   23.4012    0.4565 C.3     1  UNL1        0.1298
     30 C          25.6571   22.4374   -0.6659 C.ar    1  UNL1        0.0322
     31 C          24.7034   21.2952   -0.4769 C.ar    1  UNL1       -0.0029
     32 C          24.4556   20.3315   -1.5993 C.ar    1  UNL1       -0.0226
     33 C          25.1616   20.5100   -2.9107 C.ar    1  UNL1       -0.0043
     34 C          26.1153   21.6522   -3.0997 C.ar    1  UNL1       -0.0004
     35 C          26.3631   22.6159   -1.9773 C.ar    1  UNL1        0.0014
     36 C          23.5019   19.1892   -1.4104 C.3     1  UNL1        0.0223
     37 C          22.6810   18.6985   -2.5660 C.3     1  UNL1        0.0047
     38 C          23.3690   18.5377   -0.0658 C.3     1  UNL1        0.0047
     39 C          23.4588   29.0416    2.0057 C.3     1  UNL1        0.0486
     40 C          22.8319   30.0023    1.0393 C.ar    1  UNL1       -0.0204
     41 C          23.4747   30.2530   -0.2926 C.ar    1  UNL1       -0.0042
     42 C          22.8478   31.2137   -1.2590 C.ar    1  UNL1       -0.0003
     43 C          21.5780   31.9237   -0.8935 C.ar    1  UNL1       -0.0000
     44 C          20.9352   31.6730    0.4383 C.ar    1  UNL1       -0.0003
     45 C          21.5622   30.7123    1.4048 C.ar    1  UNL1       -0.0042
@<TRIPOS>UNITY_ATOM_ATTR
26 1
charge 1
@<TRIPOS>BOND
     1    15    16    2
     2    16    17   am
     3    17    18    1
     4    18    19    1
     5    19    20    1
     6    20    21    1
     7    17    12    1
     8    12    13    1
     9    12    14    1
    10     6    12    1
    11     6     7    1
    12     7     8    1
    13     8     9    1
    14     9    10    1
    15    10    11    1
    16     8     2    1
    17     2     3    2
    18     2     4   am
    19     4     1    1
    20     1    22    1
    21    22    23    1
    22    22    25    1
    23    25    26    1
    24    26    29    1
    25    29    30    1
    26    30    31   ar
    27    31    32   ar
    28    32    33   ar
    29    33    34   ar
    30    34    35   ar
    31    32    36    1
    32    36    37    1
    33    36    38    1
    34     1    39    1
    35    39    40    1
    36    40    41   ar
    37    41    42   ar
    38    42    43   ar
    39    43    44   ar
    40    44    45   ar
    41    21    16    1
    42    11     6    1
    43    35    30   ar
    44    45    40   ar
    45     4     5    1
    46    23    24    1
    47    26    27    1
    48    26    28    1
@<TRIPOS>MOLECULE
*****
 45 48 0 0 0
SMALL
GASTEIGER

@<TRIPOS>ATOM
      1 C          24.0635   18.1396   -0.5846 C.3     1  UNL1        0.1086
      2 C          24.6438   20.6683   -0.7227 C.2     1  UNL1        0.2220
      3 O          23.4464   20.9892    0.1220 O.2     1  UNL1       -0.2751
      4 N          24.9524   19.2435   -1.0760 N.am    1  UNL1       -0.3030
      5 H          25.7382   19.0329   -1.6303 H       1  UNL1        0.1495
      6 C          26.5205   24.1588   -0.9340 C.3     1  UNL1        0.0172
      7 C          25.6316   23.0548   -0.4427 C.3     1  UNL1        0.0107
      8 C          25.5326   21.7722   -1.2140 C.3     1  UNL1        0.0765
      9 C          26.3225   21.5934   -2.4766 C.3     1  UNL1        0.0091
     10 C          27.2113   22.6973   -2.9679 C.3     1  UNL1        0.0005
     11 C          27.3103   23.9800   -2.1966 C.3     1  UNL1        0.0016
     12 C          26.6194   25.4414   -0.1626 C.3     1  UNL1        0.0603
     13 C          25.1783   25.7318   -0.4606 C.3     1  UNL1        0.0199
     14 C          28.0605   25.1510    0.1353 C.3     1  UNL1        0.0199
     15 O          26.1129   25.4566    2.7943 O.2     1  UNL1       -0.2749
     16 C          26.4652   26.7317    2.0871 C.2     1  UNL1        0.2255
     17 N          26.7185   26.7241    0.6087 N.am    1  UNL1       -0.2827
     18 C          27.0708   27.9992   -0.0984 C.3     1  UNL1        0.0933
     19 C          27.1698   29.2819    0.6729 C.3     1  UNL1        0.0220
     20 C          26.9165   29.2895    2.1513 C.3     1  UNL1        0.0113
     21 C          26.5642   28.0144    2.8584 C.3     1  UNL1        0.0853
     22 C          24.1618   17.6745    0.8380 C.3     1  UNL1        0.1839
     23 O          25.2332   16.7035    1.2373 O.3     1  UNL1       -0.3775
     24 H          25.2968   16.4027    2.1573 H       1  UNL1        0.2106
     25 C          23.1889   18.1803    1.8614 C.3     1  UNL1        0.1339
     26 N          21.9570   18.9169    1.4255 N.4     1  UNL1        0.2597
     27 H          21.5187   18.6936    0.5319 H       1  UNL1        0.2040
     28 H          21.1193   19.4177    1.1290 H       1  UNL1        0.2040
     29 C          21.3696   19.9817    2.3035 C.3     1  UNL1        0.1298
     30 C          20.0847   20.6507    1.9140 C.ar    1  UNL1        0.0322
     31 C          20.1051   21.8375    0.9969 C.ar    1  UNL1       -0.0029
     32 C          18.8203   22.5064    0.6074 C.ar    1  UNL1       -0.0226
     33 C          17.5151   21.9886    1.1351 C.ar    1  UNL1       -0.0043
     34 C          17.4948   20.8019    2.0523 C.ar    1  UNL1       -0.0004
     35 C          18.7796   20.1329    2.4417 C.ar    1  UNL1        0.0014
     36 C          18.8406   23.6932   -0.3098 C.3     1  UNL1        0.0223
     37 C          19.1552   25.0555    0.2334 C.3     1  UNL1        0.0047
     38 C          18.5462   23.5176   -1.7700 C.3     1  UNL1        0.0047
     39 C          23.0762   17.5009   -1.5159 C.3     1  UNL1        0.0486
     40 C          21.6394   17.9309   -1.4957 C.ar    1  UNL1       -0.0204
     41 C          21.2701   19.3313   -1.8863 C.ar    1  UNL1       -0.0042
     42 C          19.8333   19.7614   -1.8661 C.ar    1  UNL1       -0.0003
     43 C          18.7656   18.7910   -1.4554 C.ar    1  UNL1       -0.0000
     44 C          19.1349   17.3906   -1.0648 C.ar    1  UNL1       -0.0003
     45 C          20.5718   16.9606   -1.0850 C.ar    1  UNL1       -0.0042
@<TRIPOS>UNITY_ATOM_ATTR
26 1
charge 1
@<TRIPOS>BOND
     1    15    16    2
     2    16    17   am
     3    17    18    1
     4    18    19    1
     5    19    20    1
     6    20    21    1
     7    17    12    1
     8    12    13    1
     9    12    14    1
    10     6    12    1
    11     6     7    1
    12     7     8    1
    13     8     9    1
    14     9    10    1
    15    10    11    1
    16     8     2    1
    17     2     3    2
    18     2     4   am
    19     4     1    1
    20     1    22    1
    21    22    23    1
    22    22    25    1
    23    25    26    1
    24    26    29    1
    25    29    30    1
    26    30    31   ar
    27    31    32   ar
    28    32    33   ar
    29    33    34   ar
    30    34    35   ar
    31    32    36    1
    32    36    37    1
    33    36    38    1
    34     1    39    1
    35    39    40    1
    36    40    41   ar
    37    41    42   ar
    38    42    43   ar
    39    43    44   ar
    40    44    45   ar
    41    21    16    1
    42    11     6    1
    43    35    30   ar
    44    45    40   ar
    45     4     5    1
    46    23    24    1
    47    26    27    1
    48    26    28    1
@<TRIPOS>MOLECULE
*****
 45 48 0 0 0
SMALL
GASTEIGER

@<TRIPOS>ATOM
      1 C          22.0338   25.8755    1.6024 C.3     1  UNL1        0.1086
      2 C          19.8937   24.4495    1.2325 C.2     1  UNL1        0.2220
      3 O          19.0782   25.7033    1.1182 O.2     1  UNL1       -0.2751
      4 N          21.3716   24.5357    1.4746 N.am    1  UNL1       -0.3030
      5 H          21.9069   23.7128    1.5497 H       1  UNL1        0.1495
      6 C          19.3962   20.5188    1.0060 C.3     1  UNL1        0.0172
      7 C          20.0584   21.8587    1.1338 C.3     1  UNL1        0.0107
      8 C          19.2315   23.1098    1.1047 C.3     1  UNL1        0.0765
      9 C          17.7424   23.0211    0.9479 C.3     1  UNL1        0.0091
     10 C          17.0801   21.6813    0.8201 C.3     1  UNL1        0.0005
     11 C          17.9070   20.4301    0.8492 C.3     1  UNL1        0.0016
     12 C          20.2231   19.2677    1.0351 C.3     1  UNL1        0.0603
     13 C          19.7066   18.9583    2.4089 C.3     1  UNL1        0.0199
     14 C          20.7395   19.5771   -0.3388 C.3     1  UNL1        0.0199
     15 O          22.9682   19.3116    2.2444 O.2     1  UNL1       -0.2749
     16 C          22.4225   18.0385    1.6688 C.2     1  UNL1        0.2255
     17 N          21.0500   18.0165    1.0641 N.am    1  UNL1       -0.2827
     18 C          20.5044   16.7433    0.4884 C.3     1  UNL1        0.0933
     19 C          21.3313   15.4922    0.5174 C.3     1  UNL1        0.0220
     20 C          22.7038   15.5142    1.1221 C.3     1  UNL1        0.0113
     21 C          23.2494   16.7873    1.6977 C.3     1  UNL1        0.0853
     22 C          21.8288   26.6986    2.8395 C.3     1  UNL1        0.1839
     23 O          21.5169   26.0269    4.1440 O.3     1  UNL1       -0.3775
     24 H          21.3843   26.5592    4.9440 H       1  UNL1        0.2106
     25 C          21.9355   28.1932    2.7722 C.3     1  UNL1        0.1339
     26 N          23.2847   28.8482    2.7437 N.4     1  UNL1        0.2597
     27 H          23.9611   28.6551    3.4824 H       1  UNL1        0.2040
     28 H          24.2021   29.2936    2.7244 H       1  UNL1        0.2040
     29 C          23.6392   29.7872    1.6290 C.3     1  UNL1        0.1298
     30 C          25.0524   29.8612    1.1315 C.ar    1  UNL1        0.0322
     31 C          25.3263   30.2241   -0.2979 C.ar    1  UNL1       -0.0029
     32 C          26.7394   30.2981   -0.7953 C.ar    1  UNL1       -0.0226
     33 C          27.8787   30.0093    0.1366 C.ar    1  UNL1       -0.0043
     34 C          27.6048   29.6464    1.5661 C.ar    1  UNL1       -0.0004
     35 C          26.1917   29.5724    2.0635 C.ar    1  UNL1        0.0014
     36 C          27.0134   30.6610   -2.2248 C.3     1  UNL1        0.0223
     37 C          27.8046   31.8939   -2.5472 C.3     1  UNL1        0.0047
     38 C          26.4960   29.7911   -3.3318 C.3     1  UNL1        0.0047
     39 C          22.9011   26.3923    0.4930 C.3     1  UNL1        0.0486
     40 C          24.3925   26.2602    0.5833 C.ar    1  UNL1       -0.0204
     41 C          25.2482   26.5946   -0.6024 C.ar    1  UNL1       -0.0042
     42 C          26.7396   26.4625   -0.5121 C.ar    1  UNL1       -0.0003
     43 C          27.3754   25.9959    0.7640 C.ar    1  UNL1       -0.0000
     44 C          26.5196   25.6614    1.9496 C.ar    1  UNL1       -0.0003
     45 C          25.0282   25.7936    1.8593 C.ar    1  UNL1       -0.0042
@<TRIPOS>UNITY_ATOM_ATTR
26 1
charge 1
@<TRIPOS>BOND
     1    15    16    2
     2    16    17   am
     3    17    18    1
     4    18    19    1
     5    19    20    1
     6    20    21    1
     7    17    12    1
     8    12    13    1
     9    12    14    1
    10     6    12    1
    11     6     7    1
    12     7     8    1
    13     8     9    1
    14     9    10    1
    15    10    11    1
    16     8     2    1
    17     2     3    2
    18     2     4   am
    19     4     1    1
    20     1    22    1
    21    22    23    1
    22    22    25    1
    23    25    26    1
    24    26    29    1
    25    29    30    1
    26    30    31   ar
    27    31    32   ar
    28    32    33   ar
    29    33    34   ar
    30    34    35   ar
    31    32    36    1
    32    36    37    1
    33    36    38    1
    34     1    39    1
    35    39    40    1
    36    40    41   ar
    37    41    42   ar
    38    42    43   ar
    39    43    44   ar
    40    44    45   ar
    41    21    16    1
    42    11     6    1
    43    35    30   ar
    44    45    40   ar
    45     4     5    1
    46    23    24    1
    47    26    27    1
    48    26    28    1
@<TRIPOS>MOLECULE
*****
 45 48 0 0 0
SMALL
GASTEIGER

@<TRIPOS>ATOM
      1 C          17.8927   22.1621    0.0624 C.3     1  UNL1        0.1086
      2 C          19.6903   23.8264    0.9276 C.2     1  UNL1        0.2220
      3 O          20.7189   22.7351    0.8896 O.2     1  UNL1       -0.2751
      4 N          18.2772   23.5398    0.5140 N.am    1  UNL1       -0.3030
      5 H          17.6022   24.2560    0.5390 H       1  UNL1        0.1495
      6 C          21.8700   27.0617    1.6567 C.3     1  UNL1        0.0172
      7 C          21.4853   25.6840    1.2050 C.3     1  UNL1        0.0107
      8 C          20.0749   25.2041    1.3792 C.3     1  UNL1        0.0765
      9 C          19.0491   26.1018    2.0051 C.3     1  UNL1        0.0091
     10 C          19.4337   27.4795    2.4567 C.3     1  UNL1        0.0005
     11 C          20.8442   27.9595    2.2825 C.3     1  UNL1        0.0016
     12 C          23.2804   27.5416    1.4825 C.3     1  UNL1        0.0603
     13 C          22.7767   28.9330    1.2373 C.3     1  UNL1        0.0199
     14 C          23.7841   26.1502    1.7276 C.3     1  UNL1        0.0199
     15 O          24.7902   28.6446    3.8285 O.2     1  UNL1       -0.2749
     16 C          25.4458   28.5730    2.4813 C.2     1  UNL1        0.2255
     17 N          24.6909   28.0215    1.3083 N.am    1  UNL1       -0.2827
     18 C          25.3465   27.9498   -0.0390 C.3     1  UNL1        0.0933
     19 C          26.7569   28.4297   -0.2133 C.3     1  UNL1        0.0220
     20 C          27.5118   28.9812    0.9597 C.3     1  UNL1        0.0113
     21 C          26.8562   29.0528    2.3070 C.3     1  UNL1        0.0853
     22 C          18.1235   21.7475   -1.3606 C.3     1  UNL1        0.1839
     23 O          18.1787   22.7834   -2.4440 O.3     1  UNL1       -0.3775
     24 H          18.3280   22.5154   -3.3642 H       1  UNL1        0.2106
     25 C          18.2991   20.2971   -1.7001 C.3     1  UNL1        0.1339
     26 N          17.3180   19.6149   -2.6068 N.4     1  UNL1        0.2597
     27 H          16.3277   19.8549   -2.5595 H       1  UNL1        0.2040
     28 H          16.6508   19.1510   -3.2233 H       1  UNL1        0.2040
     29 C          17.7931   18.5798   -3.5829 C.3     1  UNL1        0.1298
     30 C          16.9067   17.4238   -3.9410 C.ar    1  UNL1        0.0322
     31 C          16.2433   17.3757   -5.2854 C.ar    1  UNL1       -0.0029
     32 C          15.3571   16.2197   -5.6434 C.ar    1  UNL1       -0.0226
     33 C          15.1342   15.1118   -4.6570 C.ar    1  UNL1       -0.0043
     34 C          15.7976   15.1599   -3.3126 C.ar    1  UNL1       -0.0004
     35 C          16.6839   16.3159   -2.9546 C.ar    1  UNL1        0.0014
     36 C          14.6936   16.1715   -6.9879 C.3     1  UNL1        0.0223
     37 C          14.3325   17.4458   -7.6921 C.3     1  UNL1        0.0047
     38 C          14.3913   14.8492   -7.6281 C.3     1  UNL1        0.0047
     39 C          17.2773   21.1989    1.0338 C.3     1  UNL1        0.0486
     40 C          18.1368   20.5053    2.0487 C.ar    1  UNL1       -0.0204
     41 C          19.4130   19.8419    1.6231 C.ar    1  UNL1       -0.0042
     42 C          20.2725   19.1484    2.6380 C.ar    1  UNL1       -0.0003
     43 C          19.8558   19.1182    4.0787 C.ar    1  UNL1       -0.0000
     44 C          18.5796   19.7815    4.5044 C.ar    1  UNL1       -0.0003
     45 C          17.7201   20.4751    3.4893 C.ar    1  UNL1       -0.0042
@<TRIPOS>UNITY_ATOM_ATTR
26 1
charge 1
@<TRIPOS>BOND
     1    15    16    2
     2    16    17   am
     3    17    18    1
     4    18    19    1
     5    19    20    1
     6    20    21    1
     7    17    12    1
     8    12    13    1
     9    12    14    1
    10     6    12    1
    11     6     7    1
    12     7     8    1
    13     8     9    1
    14     9    10    1
    15    10    11    1
    16     8     2    1
    17     2     3    2
    18     2     4   am
    19     4     1    1
    20     1    22    1
    21    22    23    1
    22    22    25    1
    23    25    26    1
    24    26    29    1
    25    29    30    1
    26    30    31   ar
    27    31    32   ar
    28    32    33   ar
    29    33    34   ar
    30    34    35   ar
    31    32    36    1
    32    36    37    1
    33    36    38    1
    34     1    39    1
    35    39    40    1
    36    40    41   ar
    37    41    42   ar
    38    42    43   ar
    39    43    44   ar
    40    44    45   ar
    41    21    16    1
    42    11     6    1
    43    35    30   ar
    44    45    40   ar
    45     4     5    1
    46    23    24    1
    47    26    27    1
    48    26    28    1
@<TRIPOS>MOLECULE
*****
 45 48 0 0 0
SMALL
GASTEIGER

@<TRIPOS>ATOM
      1 C          22.5558   26.1004    1.9084 C.3     1  UNL1        0.1086
      2 C          23.4679   28.5062    1.5472 C.2     1  UNL1        0.2220
      3 O          24.0907   28.4748    2.9115 O.2     1  UNL1       -0.2751
      4 N          22.7004   27.3189    1.0457 N.am    1  UNL1       -0.3030
      5 H          22.2917   27.3395    0.1503 H       1  UNL1        0.1495
      6 C          25.0714   31.2453   -0.8351 C.3     1  UNL1        0.0172
      7 C          24.9267   30.0267    0.0276 C.3     1  UNL1        0.0107
      8 C          23.6125   29.7247    0.6846 C.3     1  UNL1        0.0765
      9 C          22.4430   30.6411    0.4789 C.3     1  UNL1        0.0091
     10 C          22.5876   31.8597   -0.3838 C.3     1  UNL1        0.0005
     11 C          23.9019   32.1618   -1.0408 C.3     1  UNL1        0.0016
     12 C          26.3855   31.5474   -1.4921 C.3     1  UNL1        0.0603
     13 C          26.9771   30.3145   -0.8758 C.3     1  UNL1        0.0199
     14 C          25.7940   32.7803   -2.1085 C.3     1  UNL1        0.0199
     15 O          28.4721   33.1215   -0.0195 O.2     1  UNL1       -0.2749
     16 C          28.7430   32.6365   -1.4128 C.2     1  UNL1        0.2255
     17 N          27.6998   31.8495   -2.1491 N.am    1  UNL1       -0.2827
     18 C          27.9707   31.3646   -3.5425 C.3     1  UNL1        0.0933
     19 C          29.2848   31.6667   -4.1995 C.3     1  UNL1        0.0220
     20 C          30.3280   32.4537   -3.4632 C.3     1  UNL1        0.0113
     21 C          30.0571   32.9386   -2.0699 C.3     1  UNL1        0.0853
     22 C          21.5091   26.0615    2.9821 C.3     1  UNL1        0.1839
     23 O          21.7590   26.7370    4.2979 O.3     1  UNL1       -0.3775
     24 H          21.0821   26.7119    4.9922 H       1  UNL1        0.2106
     25 C          20.2126   25.3472    2.7400 C.3     1  UNL1        0.1339
     26 N          19.2311   25.8911    1.7446 N.4     1  UNL1        0.2597
     27 H          19.3763   26.8151    1.3377 H       1  UNL1        0.2040
     28 H          18.5637   26.2609    1.0676 H       1  UNL1        0.2040
     29 C          18.0360   25.0762    1.3475 C.3     1  UNL1        0.1298
     30 C          18.2038   23.6349    0.9672 C.ar    1  UNL1        0.0322
     31 C          18.2918   22.5833    2.0333 C.ar    1  UNL1       -0.0029
     32 C          18.4596   21.1421    1.6530 C.ar    1  UNL1       -0.0226
     33 C          18.5393   20.7524    0.2067 C.ar    1  UNL1       -0.0043
     34 C          18.4512   21.8039   -0.8594 C.ar    1  UNL1       -0.0004
     35 C          18.2834   23.2452   -0.4791 C.ar    1  UNL1        0.0014
     36 C          18.5477   20.0905    2.7190 C.3     1  UNL1        0.0223
     37 C          19.4534   18.9092    2.5342 C.3     1  UNL1        0.0047
     38 C          17.7301   20.2202    3.9699 C.3     1  UNL1        0.0047
     39 C          23.4579   24.9207    1.6974 C.3     1  UNL1        0.0486
     40 C          24.8607   25.1273    1.2080 C.ar    1  UNL1       -0.0204
     41 C          26.0043   25.1066    2.1784 C.ar    1  UNL1       -0.0042
     42 C          27.4070   25.3132    1.6890 C.ar    1  UNL1       -0.0003
     43 C          27.6662   25.5405    0.2291 C.ar    1  UNL1       -0.0000
     44 C          26.5226   25.5611   -0.7414 C.ar    1  UNL1       -0.0003
     45 C          25.1198   25.3545   -0.2519 C.ar    1  UNL1       -0.0042
@<TRIPOS>UNITY_ATOM_ATTR
26 1
charge 1
@<TRIPOS>BOND
     1    15    16    2
     2    16    17   am
     3    17    18    1
     4    18    19    1
     5    19    20    1
     6    20    21    1
     7    17    12    1
     8    12    13    1
     9    12    14    1
    10     6    12    1
    11     6     7    1
    12     7     8    1
    13     8     9    1
    14     9    10    1
    15    10    11    1
    16     8     2    1
    17     2     3    2
    18     2     4   am
    19     4     1    1
    20     1    22    1
    21    22    23    1
    22    22    25    1
    23    25    26    1
    24    26    29    1
    25    29    30    1
    26    30    31   ar
    27    31    32   ar
    28    32    33   ar
    29    33    34   ar
    30    34    35   ar
    31    32    36    1
    32    36    37    1
    33    36    38    1
    34     1    39    1
    35    39    40    1
    36    40    41   ar
    37    41    42   ar
    38    42    43   ar
    39    43    44   ar
    40    44    45   ar
    41    21    16    1
    42    11     6    1
    43    35    30   ar
    44    45    40   ar
    45     4     5    1
    46    23    24    1
    47    26    27    1
    48    26    28    1
@<TRIPOS>MOLECULE
*****
 45 48 0 0 0
SMALL
GASTEIGER

@<TRIPOS>ATOM
      1 C          27.9129   33.3949   -1.3844 C.3     1  UNL1        0.1086
      2 C          27.3222   30.9057   -0.9314 C.2     1  UNL1        0.2220
      3 O          26.8693   30.7545   -2.3535 O.2     1  UNL1       -0.2751
      4 N          27.8441   32.2259   -0.4469 N.am    1  UNL1       -0.3030
      5 H          28.1414   32.3252    0.4864 H       1  UNL1        0.1495
      6 C          26.9291   27.1904    0.4070 C.3     1  UNL1        0.0172
      7 C          26.9979   28.3594   -0.5304 C.3     1  UNL1        0.0107
      8 C          27.2534   29.7367    0.0059 C.3     1  UNL1        0.0765
      9 C          27.4400   29.9451    1.4796 C.3     1  UNL1        0.0091
     10 C          27.3712   28.7761    2.4170 C.3     1  UNL1        0.0005
     11 C          27.1157   27.3987    1.8807 C.3     1  UNL1        0.0016
     12 C          26.6736   25.8130   -0.1293 C.3     1  UNL1        0.0603
     13 C          25.4430   26.3127   -0.8264 C.3     1  UNL1        0.0199
     14 C          27.9042   25.3134    0.5677 C.3     1  UNL1        0.0199
     15 O          25.0027   23.8781    1.4404 O.2     1  UNL1       -0.2749
     16 C          25.5827   23.4682    0.1192 C.2     1  UNL1        0.2255
     17 N          26.4182   24.4356   -0.6656 N.am    1  UNL1       -0.2827
     18 C          26.9983   24.0257   -1.9868 C.3     1  UNL1        0.0933
     19 C          26.7429   22.6484   -2.5232 C.3     1  UNL1        0.0220
     20 C          25.9074   21.6810   -1.7383 C.3     1  UNL1        0.0113
     21 C          25.3273   22.0909   -0.4171 C.3     1  UNL1        0.0853
     22 C          26.6546   34.0964   -1.8020 C.3     1  UNL1        0.1839
     23 O          25.8295   33.5492   -2.9288 O.3     1  UNL1       -0.3775
     24 H          25.0158   34.0029   -3.1989 H       1  UNL1        0.2106
     25 C          26.2214   35.3452   -1.0929 C.3     1  UNL1        0.1339
     26 N          25.1285   35.2846   -0.0672 N.4     1  UNL1        0.2597
     27 H          25.3302   35.5101    0.9068 H       1  UNL1        0.2040
     28 H          24.3854   35.2434    0.6302 H       1  UNL1        0.2040
     29 C          23.7391   34.8923   -0.4741 C.3     1  UNL1        0.1298
     30 C          23.0920   33.6842    0.1357 C.ar    1  UNL1        0.0322
     31 C          23.5143   32.3103   -0.2931 C.ar    1  UNL1       -0.0029
     32 C          22.8672   31.1023    0.3166 C.ar    1  UNL1       -0.0226
     33 C          21.7977   31.2681    1.3552 C.ar    1  UNL1       -0.0043
     34 C          21.3754   32.6421    1.7841 C.ar    1  UNL1       -0.0004
     35 C          22.0225   33.8501    1.1743 C.ar    1  UNL1        0.0014
     36 C          23.2895   29.7282   -0.1122 C.3     1  UNL1        0.0223
     37 C          23.6194   29.4598   -1.5507 C.3     1  UNL1        0.0047
     38 C          23.3818   28.6227    0.8974 C.3     1  UNL1        0.0047
     39 C          29.2401   33.8623   -1.9041 C.3     1  UNL1        0.0486
     40 C          30.0127   34.9077   -1.1556 C.ar    1  UNL1       -0.0204
     41 C          29.7082   36.3610   -1.3680 C.ar    1  UNL1       -0.0042
     42 C          30.4808   37.4063   -0.6195 C.ar    1  UNL1       -0.0003
     43 C          31.5580   36.9984    0.3415 C.ar    1  UNL1       -0.0000
     44 C          31.8625   35.5450    0.5538 C.ar    1  UNL1       -0.0003
     45 C          31.0898   34.4997   -0.1947 C.ar    1  UNL1       -0.0042
@<TRIPOS>UNITY_ATOM_ATTR
26 1
charge 1
@<TRIPOS>BOND
     1    15    16    2
     2    16    17   am
     3    17    18    1
     4    18    19    1
     5    19    20    1
     6    20    21    1
     7    17    12    1
     8    12    13    1
     9    12    14    1
    10     6    12    1
    11     6     7    1
    12     7     8    1
    13     8     9    1
    14     9    10    1
    15    10    11    1
    16     8     2    1
    17     2     3    2
    18     2     4   am
    19     4     1    1
    20     1    22    1
    21    22    23    1
    22    22    25    1
    23    25    26    1
    24    26    29    1
    25    29    30    1
    26    30    31   ar
    27    31    32   ar
    28    32    33   ar
    29    33    34   ar
    30    34    35   ar
    31    32    36    1
    32    36    37    1
    33    36    38    1
    34     1    39    1
    35    39    40    1
    36    40    41   ar
    37    41    42   ar
    38    42    43   ar
    39    43    44   ar
    40    44    45   ar
    41    21    16    1
    42    11     6    1
    43    35    30   ar
    44    45    40   ar
    45     4     5    1
    46    23    24    1
    47    26    27    1
    48    26    28    1
@<TRIPOS>MOLECULE
*****
 45 48 0 0 0
SMALL
GASTEIGER

@<TRIPOS>ATOM
      1 C          17.8389   22.1302    0.1777 C.3     1  UNL1        0.1086
      2 C          19.6698   23.8045    0.9487 C.2     1  UNL1        0.2220
      3 O          20.7086   22.7309    0.8129 O.2     1  UNL1       -0.2751
      4 N          18.2349   23.5041    0.6311 N.am    1  UNL1       -0.3030
      5 H          17.5531   24.2087    0.7201 H       1  UNL1        0.1495
      6 C          21.8730   27.0261    1.6681 C.3     1  UNL1        0.0172
      7 C          21.4768   25.6521    1.2148 C.3     1  UNL1        0.0107
      8 C          20.0659   25.1783    1.4020 C.3     1  UNL1        0.0765
      9 C          19.0512   26.0784    2.0425 C.3     1  UNL1        0.0091
     10 C          19.4474   27.4523    2.4958 C.3     1  UNL1        0.0005
     11 C          20.8582   27.9261    2.3086 C.3     1  UNL1        0.0016
     12 C          23.2838   27.4998    1.4810 C.3     1  UNL1        0.0603
     13 C          22.7838   28.8933    1.2397 C.3     1  UNL1        0.0199
     14 C          23.7837   26.1064    1.7223 C.3     1  UNL1        0.0199
     15 O          24.8137   28.6130    3.8091 O.2     1  UNL1       -0.2749
     16 C          25.4596   28.5302    2.4579 C.2     1  UNL1        0.2255
     17 N          24.6947   27.9736    1.2938 N.am    1  UNL1       -0.2827
     18 C          25.3406   27.8907   -0.0574 C.3     1  UNL1        0.0933
     19 C          26.7515   28.3644   -0.2446 C.3     1  UNL1        0.0220
     20 C          27.5164   28.9210    0.9194 C.3     1  UNL1        0.0113
     21 C          26.8704   29.0039    2.2707 C.3     1  UNL1        0.0853
     22 C          18.0199   21.7326   -1.2572 C.3     1  UNL1        0.1839
     23 O          17.9835   22.7755   -2.3347 O.3     1  UNL1       -0.3775
     24 H          18.1006   22.5184   -3.2627 H       1  UNL1        0.2106
     25 C          18.2372   20.2922   -1.6147 C.3     1  UNL1        0.1339
     26 N          17.3256   19.6172   -2.5963 N.4     1  UNL1        0.2597
     27 H          16.3583   19.9269   -2.6903 H       1  UNL1        0.2040
     28 H          16.7057   19.1582   -3.2637 H       1  UNL1        0.2040
     29 C          17.8365   18.4868   -3.4395 C.3     1  UNL1        0.1298
     30 C          17.3335   17.0925   -3.2093 C.ar    1  UNL1        0.0322
     31 C          18.1513   16.1228   -2.4088 C.ar    1  UNL1       -0.0029
     32 C          17.6483   14.7285   -2.1786 C.ar    1  UNL1       -0.0226
     33 C          16.3275   14.3040   -2.7490 C.ar    1  UNL1       -0.0043
     34 C          15.5098   15.2736   -3.5495 C.ar    1  UNL1       -0.0004
     35 C          16.0128   16.6679   -3.7797 C.ar    1  UNL1        0.0014
     36 C          18.4661   13.7588   -1.3780 C.3     1  UNL1        0.0223
     37 C          19.9466   13.9585   -1.2432 C.3     1  UNL1        0.0047
     38 C          17.8033   12.5894   -0.7122 C.3     1  UNL1        0.0047
     39 C          17.2618   21.1538    1.1594 C.3     1  UNL1        0.0486
     40 C          18.1496   20.4978    2.1749 C.ar    1  UNL1       -0.0204
     41 C          17.7437   20.4683    3.6186 C.ar    1  UNL1       -0.0042
     42 C          18.6315   19.8124    4.6341 C.ar    1  UNL1       -0.0003
     43 C          19.9255   19.1858    4.2060 C.ar    1  UNL1       -0.0000
     44 C          20.3314   19.2153    2.7623 C.ar    1  UNL1       -0.0003
     45 C          19.4435   19.8714    1.7467 C.ar    1  UNL1       -0.0042
@<TRIPOS>UNITY_ATOM_ATTR
26 1
charge 1
@<TRIPOS>BOND
     1    15    16    2
     2    16    17   am
     3    17    18    1
     4    18    19    1
     5    19    20    1
     6    20    21    1
     7    17    12    1
     8    12    13    1
     9    12    14    1
    10     6    12    1
    11     6     7    1
    12     7     8    1
    13     8     9    1
    14     9    10    1
    15    10    11    1
    16     8     2    1
    17     2     3    2
    18     2     4   am
    19     4     1    1
    20     1    22    1
    21    22    23    1
    22    22    25    1
    23    25    26    1
    24    26    29    1
    25    29    30    1
    26    30    31   ar
    27    31    32   ar
    28    32    33   ar
    29    33    34   ar
    30    34    35   ar
    31    32    36    1
    32    36    37    1
    33    36    38    1
    34     1    39    1
    35    39    40    1
    36    40    41   ar
    37    41    42   ar
    38    42    43   ar
    39    43    44   ar
    40    44    45   ar
    41    21    16    1
    42    11     6    1
    43    35    30   ar
    44    45    40   ar
    45     4     5    1
    46    23    24    1
    47    26    27    1
    48    26    28    1
@<TRIPOS>MOLECULE
*****
 45 48 0 0 0
SMALL
GASTEIGER

@<TRIPOS>ATOM
      1 C          28.1883   33.2776   -1.0300 C.3     1  UNL1        0.1086
      2 C          27.5185   30.7875   -0.7124 C.2     1  UNL1        0.2220
      3 O          27.4528   30.6154   -2.2011 O.2     1  UNL1       -0.2751
      4 N          27.8863   32.1186   -0.1269 N.am    1  UNL1       -0.3030
      5 H          27.9294   32.2316    0.8501 H       1  UNL1        0.1495
      6 C          26.7236   27.0985    0.5160 C.3     1  UNL1        0.0172
      7 C          27.0256   28.2575   -0.3871 C.3     1  UNL1        0.0107
      8 C          27.2164   29.6286    0.1906 C.3     1  UNL1        0.0765
      9 C          27.1051   29.8407    1.6714 C.3     1  UNL1        0.0091
     10 C          26.8030   28.6818    2.5744 C.3     1  UNL1        0.0005
     11 C          26.6122   27.3106    1.9968 C.3     1  UNL1        0.0016
     12 C          26.5328   25.7274   -0.0617 C.3     1  UNL1        0.0603
     13 C          27.6730   25.2186    0.7695 C.3     1  UNL1        0.0199
     14 C          25.3925   26.2363   -0.8928 C.3     1  UNL1        0.0199
     15 O          27.9827   24.9404   -2.5674 O.2     1  UNL1       -0.2749
     16 C          27.0669   23.9628   -1.8922 C.2     1  UNL1        0.2255
     17 N          26.3420   24.3563   -0.6394 N.am    1  UNL1       -0.2827
     18 C          25.4262   23.3788    0.0357 C.3     1  UNL1        0.0933
     19 C          25.2354   22.0077   -0.5420 C.3     1  UNL1        0.0220
     20 C          25.9603   21.6142   -1.7948 C.3     1  UNL1        0.0113
     21 C          26.8761   22.5918   -2.4699 C.3     1  UNL1        0.0853
     22 C          27.0872   33.9183   -1.8219 C.3     1  UNL1        0.1839
     23 O          26.5637   33.2476   -3.0572 O.3     1  UNL1       -0.3775
     24 H          25.8516   33.6619   -3.5693 H       1  UNL1        0.2106
     25 C          26.5097   35.2296   -1.3784 C.3     1  UNL1        0.1339
     26 N          25.3613   35.2555   -0.4137 N.4     1  UNL1        0.2597
     27 H          25.4956   35.6200    0.5294 H       1  UNL1        0.2040
     28 H          24.5804   35.2731    0.2423 H       1  UNL1        0.2040
     29 C          24.0154   34.7454   -0.8360 C.3     1  UNL1        0.1298
     30 C          23.3737   33.6143   -0.0883 C.ar    1  UNL1        0.0322
     31 C          23.6721   32.1957   -0.4736 C.ar    1  UNL1       -0.0029
     32 C          23.0304   31.0647    0.2740 C.ar    1  UNL1       -0.0226
     33 C          22.0902   31.3522    1.4068 C.ar    1  UNL1       -0.0043
     34 C          21.7918   32.7708    1.7921 C.ar    1  UNL1       -0.0004
     35 C          22.4335   33.9019    1.0445 C.ar    1  UNL1        0.0014
     36 C          23.3288   29.6460   -0.1113 C.3     1  UNL1        0.0223
     37 C          23.2556   28.5579    0.9187 C.3     1  UNL1        0.0047
     38 C          23.7004   29.3154   -1.5264 C.3     1  UNL1        0.0047
     39 C          29.5916   33.7959   -1.1413 C.3     1  UNL1        0.0486
     40 C          30.3468   33.6454   -2.4285 C.ar    1  UNL1       -0.0204
     41 C          31.2126   32.4414   -2.6538 C.ar    1  UNL1       -0.0042
     42 C          31.9678   32.2909   -3.9410 C.ar    1  UNL1       -0.0003
     43 C          31.8573   33.3445   -5.0030 C.ar    1  UNL1       -0.0000
     44 C          30.9916   34.5486   -4.7777 C.ar    1  UNL1       -0.0003
     45 C          30.2363   34.6990   -3.4904 C.ar    1  UNL1       -0.0042
@<TRIPOS>UNITY_ATOM_ATTR
26 1
charge 1
@<TRIPOS>BOND
     1    15    16    2
     2    16    17   am
     3    17    18    1
     4    18    19    1
     5    19    20    1
     6    20    21    1
     7    17    12    1
     8    12    13    1
     9    12    14    1
    10     6    12    1
    11     6     7    1
    12     7     8    1
    13     8     9    1
    14     9    10    1
    15    10    11    1
    16     8     2    1
    17     2     3    2
    18     2     4   am
    19     4     1    1
    20     1    22    1
    21    22    23    1
    22    22    25    1
    23    25    26    1
    24    26    29    1
    25    29    30    1
    26    30    31   ar
    27    31    32   ar
    28    32    33   ar
    29    33    34   ar
    30    34    35   ar
    31    32    36    1
    32    36    37    1
    33    36    38    1
    34     1    39    1
    35    39    40    1
    36    40    41   ar
    37    41    42   ar
    38    42    43   ar
    39    43    44   ar
    40    44    45   ar
    41    21    16    1
    42    11     6    1
    43    35    30   ar
    44    45    40   ar
    45     4     5    1
    46    23    24    1
    47    26    27    1
    48    26    28    1
@<TRIPOS>MOLECULE
*****
 47 50 0 0 0
SMALL
GASTEIGER

@<TRIPOS>ATOM
      1 C          23.1510   18.4442    0.1757 C.3     1  UNL1        0.1087
      2 N          24.1918   19.2586   -0.5340 N.am    1  UNL1       -0.2996
      3 C          24.1701   20.7551   -0.4337 C.2     1  UNL1        0.2459
      4 O          23.1076   21.4371    0.3763 O.2     1  UNL1       -0.2701
      5 H          24.8890   18.8109   -1.0657 H       1  UNL1        0.1498
      6 C          25.2107   21.5695   -1.1434 C.ar    1  UNL1        0.0532
      7 C          25.7921   22.7839   -0.4823 C.ar    1  UNL1        0.0090
      8 C          26.8328   23.5984   -1.1920 C.ar    1  UNL1        0.0534
      9 C          27.2922   23.1984   -2.5628 C.ar    1  UNL1        0.0003
     10 C          26.7107   21.9838   -3.2238 C.ar    1  UNL1       -0.0216
     11 C          25.6701   21.1694   -2.5142 C.ar    1  UNL1        0.0003
     12 C          27.1701   21.5838   -4.5946 C.3     1  UNL1        0.0310
     13 C          27.4142   24.8129   -0.5309 C.2     1  UNL1        0.2490
     14 O          28.8227   24.7845   -0.0158 O.2     1  UNL1       -0.2699
     15 N          26.5871   26.0557   -0.3849 N.am    1  UNL1       -0.2761
     16 C          27.1685   27.2702    0.2763 C.3     1  UNL1        0.0937
     17 C          27.1789   27.3770    1.7724 C.3     1  UNL1        0.0215
     18 C          26.2771   28.3585    2.4605 C.3     1  UNL1        0.0018
     19 C          25.1786   26.0840   -0.8999 C.3     1  UNL1        0.0937
     20 C          24.0377   26.3076    0.0480 C.3     1  UNL1        0.0215
     21 C          23.9709   25.5407    1.3353 C.3     1  UNL1        0.0018
     22 C          22.8630   18.6949    1.6262 C.3     1  UNL1        0.1781
     23 O          23.9849   18.7114    2.6217 O.3     1  UNL1       -0.3777
     24 H          24.8967   18.5598    2.3275 H       1  UNL1        0.2106
     25 C          21.4530   18.9293    2.0813 C.3     1  UNL1        0.0852
     26 N          20.6448   18.0152    2.9538 N.4     1  UNL1        0.2548
     27 C          19.2959   18.6398    3.1556 C.3     1  UNL1        0.1464
     28 C          19.2706   19.9399    2.4077 C.3     1  UNL1        0.2260
     29 C          20.6037   20.1187    1.7438 C.3     1  UNL1        0.1071
     30 H          20.9575   17.1252    3.3418 H       1  UNL1        0.2035
     31 H          19.9790   17.5027    3.5323 H       1  UNL1        0.2035
     32 O          18.1151   20.8935    2.3363 O.3     1  UNL1       -0.4729
     33 C          18.2260   22.1462    1.5188 C.ar    1  UNL1        0.1387
     34 C          18.3917   23.4732    2.1983 C.ar    1  UNL1        0.0369
     35 C          18.5026   24.7259    1.3807 C.ar    1  UNL1        0.0031
     36 C          18.4477   24.6517   -0.1164 C.ar    1  UNL1        0.0002
     37 C          18.2819   23.3248   -0.7960 C.ar    1  UNL1        0.0031
     38 C          18.1710   22.0721    0.0215 C.ar    1  UNL1        0.0369
     39 C          22.3983   17.3790   -0.5652 C.3     1  UNL1        0.0487
     40 F          19.1318   20.6978   -2.8707 F       1  UNL1       -0.2041
     41 C          19.4157   19.3402   -2.2994 C.ar    1  UNL1        0.1421
     42 C          20.7650   19.0384   -1.7180 C.ar    1  UNL1        0.0256
     43 C          21.0489   17.6808   -1.1467 C.ar    1  UNL1       -0.0160
     44 C          19.9834   16.6251   -1.1568 C.ar    1  UNL1        0.0256
     45 C          18.6341   16.9269   -1.7382 C.ar    1  UNL1        0.1421
     46 F          17.5685   15.8711   -1.7483 F       1  UNL1       -0.2041
     47 C          18.3502   18.2845   -2.3095 C.ar    1  UNL1        0.0592
@<TRIPOS>UNITY_ATOM_ATTR
26 1
charge 1
@<TRIPOS>BOND
     1    40    41    1
     2    41    42   ar
     3    42    43   ar
     4    43    44   ar
     5    44    45   ar
     6    45    46    1
     7    45    47   ar
     8    43    39    1
     9     1    39    1
    10     1     2    1
    11     2     3   am
    12     3     4    2
    13     3     6    1
    14     6     7   ar
    15     7     8   ar
    16     8     9   ar
    17     9    10   ar
    18    10    11   ar
    19    10    12    1
    20     8    13    1
    21    13    14    2
    22    13    15   am
    23    15    16    1
    24    16    17    1
    25    17    18    1
    26    15    19    1
    27    19    20    1
    28    20    21    1
    29     1    22    1
    30    22    23    1
    31    22    25    1
    32    25    26    1
    33    26    27    1
    34    27    28    1
    35    28    32    1
    36    32    33    1
    37    33    34   ar
    38    34    35   ar
    39    35    36   ar
    40    36    37   ar
    41    37    38   ar
    42    28    29    1
    43    47    41   ar
    44    11     6   ar
    45    25    29    1
    46    38    33   ar
    47     2     5    1
    48    23    24    1
    49    26    30    1
    50    26    31    1
@<TRIPOS>MOLECULE
*****
 47 50 0 0 0
SMALL
GASTEIGER

@<TRIPOS>ATOM
      1 C          22.7291   25.9660    1.8148 C.3     1  UNL1        0.1087
      2 N          22.8269   27.0067    0.7389 N.am    1  UNL1       -0.2996
      3 C          23.2723   28.3980    1.0796 C.2     1  UNL1        0.2459
      4 O          23.6197   28.7485    2.4962 O.2     1  UNL1       -0.2701
      5 H          22.5989   26.7767   -0.1908 H       1  UNL1        0.1498
      6 C          23.3701   29.4387    0.0039 C.ar    1  UNL1        0.0532
      7 C          24.3416   29.2613   -1.1251 C.ar    1  UNL1        0.0090
      8 C          24.4395   30.3021   -2.2009 C.ar    1  UNL1        0.0534
      9 C          23.5658   31.5202   -2.1477 C.ar    1  UNL1        0.0003
     10 C          22.5943   31.6976   -1.0186 C.ar    1  UNL1       -0.0216
     11 C          22.4965   30.6569    0.0572 C.ar    1  UNL1        0.0003
     12 C          21.7207   32.9158   -0.9653 C.3     1  UNL1        0.0310
     13 C          25.4110   30.1246   -3.3299 C.2     1  UNL1        0.2490
     14 O          25.0801   29.2030   -4.4662 O.2     1  UNL1       -0.2699
     15 N          26.7133   30.8688   -3.3227 N.am    1  UNL1       -0.2761
     16 C          27.6848   30.6913   -4.4518 C.3     1  UNL1        0.0937
     17 C          28.3808   29.3764   -4.6426 C.3     1  UNL1        0.0215
     18 C          28.3536   28.7007   -5.9815 C.3     1  UNL1        0.0018
     19 C          27.0442   31.7904   -2.1864 C.3     1  UNL1        0.0937
     20 C          28.0160   31.3581   -1.1287 C.3     1  UNL1        0.0215
     21 C          27.5697   30.4388   -0.0307 C.3     1  UNL1        0.0018
     22 C          21.5741   25.9827    2.7716 C.3     1  UNL1        0.1781
     23 O          21.6797   26.7407    4.0616 O.3     1  UNL1       -0.3777
     24 H          22.4950   27.2201    4.2771 H       1  UNL1        0.2106
     25 C          20.3133   25.2413    2.4384 C.3     1  UNL1        0.0852
     26 N          19.1601   25.0012    3.3672 N.4     1  UNL1        0.2548
     27 C          18.1185   24.2214    2.6208 C.3     1  UNL1        0.1464
     28 C          18.6280   23.9796    1.2308 C.3     1  UNL1        0.2260
     29 C          19.9845   24.6099    1.1181 C.3     1  UNL1        0.1071
     30 H          19.0956   25.3134    4.3361 H       1  UNL1        0.2035
     31 H          18.3090   24.7610    3.8753 H       1  UNL1        0.2035
     32 O          17.9076   23.2378    0.1443 O.3     1  UNL1       -0.4729
     33 C          18.3618   21.8651   -0.2551 C.ar    1  UNL1        0.1387
     34 C          18.1416   21.3806   -1.6575 C.ar    1  UNL1        0.0369
     35 C          18.5958   20.0080   -2.0569 C.ar    1  UNL1        0.0031
     36 C          19.2703   19.1198   -1.0538 C.ar    1  UNL1        0.0002
     37 C          19.4905   19.6042    0.3486 C.ar    1  UNL1        0.0031
     38 C          19.0363   20.9768    0.7480 C.ar    1  UNL1        0.0369
     39 C          23.7863   24.9085    1.9337 C.3     1  UNL1        0.0487
     40 F          28.2234   27.6118    1.8633 F       1  UNL1       -0.2041
     41 C          27.3717   26.4988    1.3286 C.ar    1  UNL1        0.1421
     42 C          26.0049   26.2602    1.8984 C.ar    1  UNL1        0.0256
     43 C          25.1532   25.1472    1.3637 C.ar    1  UNL1       -0.0160
     44 C          25.6683   24.2729    0.2591 C.ar    1  UNL1        0.0256
     45 C          27.0352   24.5116   -0.3108 C.ar    1  UNL1        0.1421
     46 F          27.5504   23.6372   -1.4154 F       1  UNL1       -0.2041
     47 C          27.8868   25.6245    0.2240 C.ar    1  UNL1        0.0592
@<TRIPOS>UNITY_ATOM_ATTR
26 1
charge 1
@<TRIPOS>BOND
     1    40    41    1
     2    41    42   ar
     3    42    43   ar
     4    43    44   ar
     5    44    45   ar
     6    45    46    1
     7    45    47   ar
     8    43    39    1
     9     1    39    1
    10     1     2    1
    11     2     3   am
    12     3     4    2
    13     3     6    1
    14     6     7   ar
    15     7     8   ar
    16     8     9   ar
    17     9    10   ar
    18    10    11   ar
    19    10    12    1
    20     8    13    1
    21    13    14    2
    22    13    15   am
    23    15    16    1
    24    16    17    1
    25    17    18    1
    26    15    19    1
    27    19    20    1
    28    20    21    1
    29     1    22    1
    30    22    23    1
    31    22    25    1
    32    25    26    1
    33    26    27    1
    34    27    28    1
    35    28    32    1
    36    32    33    1
    37    33    34   ar
    38    34    35   ar
    39    35    36   ar
    40    36    37   ar
    41    37    38   ar
    42    28    29    1
    43    47    41   ar
    44    11     6   ar
    45    25    29    1
    46    38    33   ar
    47     2     5    1
    48    23    24    1
    49    26    30    1
    50    26    31    1
@<TRIPOS>MOLECULE
*****
 47 50 0 0 0
SMALL
GASTEIGER

@<TRIPOS>ATOM
      1 C          23.2483   18.5101    0.1496 C.3     1  UNL1        0.1087
      2 N          24.2958   19.3235   -0.5513 N.am    1  UNL1       -0.2996
      3 C          24.2771   20.8198   -0.4481 C.2     1  UNL1        0.2459
      4 O          23.2108   21.5028    0.3561 O.2     1  UNL1       -0.2701
      5 H          24.9956   18.8752   -1.0791 H       1  UNL1        0.1498
      6 C          25.3245   21.6331   -1.1489 C.ar    1  UNL1        0.0532
      7 C          25.8485   22.8876   -0.5151 C.ar    1  UNL1        0.0090
      8 C          26.8960   23.7010   -1.2160 C.ar    1  UNL1        0.0534
      9 C          27.4195   23.2599   -2.5507 C.ar    1  UNL1        0.0003
     10 C          26.8954   22.0054   -3.1845 C.ar    1  UNL1       -0.0216
     11 C          25.8480   21.1920   -2.4836 C.ar    1  UNL1        0.0003
     12 C          27.4189   21.5643   -4.5192 C.3     1  UNL1        0.0310
     13 C          27.4200   24.9554   -0.5821 C.2     1  UNL1        0.2490
     14 O          28.8119   24.9888   -0.0240 O.2     1  UNL1       -0.2699
     15 N          26.5521   26.1765   -0.5064 N.am    1  UNL1       -0.2761
     16 C          27.0761   27.4310    0.1274 C.3     1  UNL1        0.0937
     17 C          27.2970   27.4864    1.6101 C.3     1  UNL1        0.0215
     18 C          26.3859   26.7324    2.5327 C.3     1  UNL1        0.0018
     19 C          25.1602   26.1431   -1.0645 C.3     1  UNL1        0.0937
     20 C          24.1421   27.1425   -0.6010 C.3     1  UNL1        0.0215
     21 C          23.1615   26.7717    0.4718 C.3     1  UNL1        0.0018
     22 C          22.9581   18.7516    1.6013 C.3     1  UNL1        0.1781
     23 O          24.0792   18.7672    2.5977 O.3     1  UNL1       -0.3777
     24 H          24.9918   18.6210    2.3033 H       1  UNL1        0.2106
     25 C          21.5468   18.9777    2.0566 C.3     1  UNL1        0.0852
     26 N          20.7712   18.0992    2.9930 N.4     1  UNL1        0.2548
     27 C          19.4084   18.7004    3.1706 C.3     1  UNL1        0.1464
     28 C          19.3419   19.9503    2.3439 C.3     1  UNL1        0.2260
     29 C          20.6635   20.1217    1.6554 C.3     1  UNL1        0.1071
     30 H          21.1108   17.2434    3.4319 H       1  UNL1        0.2035
     31 H          20.1247   17.6069    3.6094 H       1  UNL1        0.2035
     32 O          18.1611   20.8678    2.2263 O.3     1  UNL1       -0.4729
     33 C          18.2815   22.1506    1.4583 C.ar    1  UNL1        0.1387
     34 C          18.2727   22.1305   -0.0416 C.ar    1  UNL1        0.0369
     35 C          18.3931   23.4133   -0.8097 C.ar    1  UNL1        0.0031
     36 C          18.5224   24.7162   -0.0779 C.ar    1  UNL1        0.0002
     37 C          18.5313   24.7364    1.4220 C.ar    1  UNL1        0.0031
     38 C          18.4108   23.4536    2.1900 C.ar    1  UNL1        0.0369
     39 C          22.4910   17.4553   -0.6012 C.3     1  UNL1        0.0487
     40 F          23.9886   13.1667    1.9217 F       1  UNL1       -0.2041
     41 C          22.9003   14.0120    1.3292 C.ar    1  UNL1        0.1421
     42 C          23.2397   15.3109    0.6603 C.ar    1  UNL1        0.0256
     43 C          22.1515   16.1563    0.0678 C.ar    1  UNL1       -0.0160
     44 C          20.7237   15.7028    0.1443 C.ar    1  UNL1        0.0256
     45 C          20.3843   14.4039    0.8133 C.ar    1  UNL1        0.1421
     46 F          18.9565   13.9503    0.8899 F       1  UNL1       -0.2041
     47 C          21.4726   13.5585    1.4058 C.ar    1  UNL1        0.0592
@<TRIPOS>UNITY_ATOM_ATTR
26 1
charge 1
@<TRIPOS>BOND
     1    40    41    1
     2    41    42   ar
     3    42    43   ar
     4    43    44   ar
     5    44    45   ar
     6    45    46    1
     7    45    47   ar
     8    43    39    1
     9     1    39    1
    10     1     2    1
    11     2     3   am
    12     3     4    2
    13     3     6    1
    14     6     7   ar
    15     7     8   ar
    16     8     9   ar
    17     9    10   ar
    18    10    11   ar
    19    10    12    1
    20     8    13    1
    21    13    14    2
    22    13    15   am
    23    15    16    1
    24    16    17    1
    25    17    18    1
    26    15    19    1
    27    19    20    1
    28    20    21    1
    29     1    22    1
    30    22    23    1
    31    22    25    1
    32    25    26    1
    33    26    27    1
    34    27    28    1
    35    28    32    1
    36    32    33    1
    37    33    34   ar
    38    34    35   ar
    39    35    36   ar
    40    36    37   ar
    41    37    38   ar
    42    28    29    1
    43    47    41   ar
    44    11     6   ar
    45    25    29    1
    46    38    33   ar
    47     2     5    1
    48    23    24    1
    49    26    30    1
    50    26    31    1
@<TRIPOS>MOLECULE
*****
 47 50 0 0 0
SMALL
GASTEIGER

@<TRIPOS>ATOM
      1 C          23.0712   19.7129    0.2582 C.3     1  UNL1        0.1087
      2 N          23.7259   21.0624    0.2383 N.am    1  UNL1       -0.2996
      3 C          25.0251   21.2550   -0.4863 C.2     1  UNL1        0.2459
      4 O          25.6694   20.0982   -1.1912 O.2     1  UNL1       -0.2701
      5 H          23.3030   21.8216    0.7009 H       1  UNL1        0.1498
      6 C          25.6798   22.6044   -0.5062 C.ar    1  UNL1        0.0532
      7 C          25.2820   23.6459    0.4972 C.ar    1  UNL1        0.0090
      8 C          25.9367   24.9953    0.4774 C.ar    1  UNL1        0.0534
      9 C          26.9894   25.3032   -0.5459 C.ar    1  UNL1        0.0003
     10 C          27.3872   24.2616   -1.5494 C.ar    1  UNL1       -0.0216
     11 C          26.7325   22.9122   -1.5295 C.ar    1  UNL1        0.0003
     12 C          28.4399   24.5695   -2.5727 C.3     1  UNL1        0.0310
     13 C          25.5389   26.0368    1.4808 C.2     1  UNL1        0.2490
     14 O          26.2684   26.1366    2.7877 O.2     1  UNL1       -0.2699
     15 N          24.4115   26.9786    1.1775 N.am    1  UNL1       -0.2761
     16 C          24.0136   28.0201    2.1810 C.3     1  UNL1        0.0937
     17 C          24.1693   29.4755    1.8532 C.3     1  UNL1        0.0215
     18 C          23.0257   30.2346    1.2481 C.3     1  UNL1        0.0018
     19 C          23.6819   26.8788   -0.1293 C.3     1  UNL1        0.0937
     20 C          24.1208   27.7096   -1.2986 C.3     1  UNL1        0.0215
     21 C          25.4667   28.3716   -1.2853 C.3     1  UNL1        0.0018
     22 C          22.5383   19.1191   -1.0120 C.3     1  UNL1        0.1781
     23 O          23.3889   18.1809   -1.8160 O.3     1  UNL1       -0.3777
     24 H          24.2836   17.9583   -1.5144 H       1  UNL1        0.2106
     25 C          21.1548   19.4634   -1.4783 C.3     1  UNL1        0.0852
     26 N          20.4552   18.8795   -2.6698 N.4     1  UNL1        0.2548
     27 C          19.0960   19.5072   -2.7629 C.3     1  UNL1        0.1464
     28 C          18.9556   20.4790   -1.6289 C.3     1  UNL1        0.2260
     29 C          20.2280   20.4519   -0.8350 C.3     1  UNL1        0.1071
     30 H          20.8367   18.1786   -3.3052 H       1  UNL1        0.2035
     31 H          19.8575   18.5777   -3.4393 H       1  UNL1        0.2035
     32 O          17.7539   21.3287   -1.3396 O.3     1  UNL1       -0.4729
     33 C          17.8796   22.5255   -0.4441 C.ar    1  UNL1        0.1387
     34 C          17.1700   22.5515    0.8772 C.ar    1  UNL1        0.0369
     35 C          17.2956   23.7483    1.7727 C.ar    1  UNL1        0.0031
     36 C          18.1309   24.9192    1.3469 C.ar    1  UNL1        0.0002
     37 C          18.8405   24.8933    0.0256 C.ar    1  UNL1        0.0031
     38 C          18.7149   23.6965   -0.8699 C.ar    1  UNL1        0.0369
     39 C          22.9493   18.9573    1.5482 C.3     1  UNL1        0.0487
     40 F          25.1243   14.2983    2.2983 F       1  UNL1       -0.2041
     41 C          23.9389   15.1311    1.9094 C.ar    1  UNL1        0.1421
     42 C          24.0368   16.6278    1.9232 C.ar    1  UNL1        0.0256
     43 C          22.8513   17.4606    1.5344 C.ar    1  UNL1       -0.0160
     44 C          21.5680   16.7966    1.1318 C.ar    1  UNL1        0.0256
     45 C          21.4701   15.2999    1.1179 C.ar    1  UNL1        0.1421
     46 F          20.1867   14.6359    0.7153 F       1  UNL1       -0.2041
     47 C          22.6555   14.4671    1.5068 C.ar    1  UNL1        0.0592
@<TRIPOS>UNITY_ATOM_ATTR
26 1
charge 1
@<TRIPOS>BOND
     1    40    41    1
     2    41    42   ar
     3    42    43   ar
     4    43    44   ar
     5    44    45   ar
     6    45    46    1
     7    45    47   ar
     8    43    39    1
     9     1    39    1
    10     1     2    1
    11     2     3   am
    12     3     4    2
    13     3     6    1
    14     6     7   ar
    15     7     8   ar
    16     8     9   ar
    17     9    10   ar
    18    10    11   ar
    19    10    12    1
    20     8    13    1
    21    13    14    2
    22    13    15   am
    23    15    16    1
    24    16    17    1
    25    17    18    1
    26    15    19    1
    27    19    20    1
    28    20    21    1
    29     1    22    1
    30    22    23    1
    31    22    25    1
    32    25    26    1
    33    26    27    1
    34    27    28    1
    35    28    32    1
    36    32    33    1
    37    33    34   ar
    38    34    35   ar
    39    35    36   ar
    40    36    37   ar
    41    37    38   ar
    42    28    29    1
    43    47    41   ar
    44    11     6   ar
    45    25    29    1
    46    38    33   ar
    47     2     5    1
    48    23    24    1
    49    26    30    1
    50    26    31    1
@<TRIPOS>MOLECULE
*****
 47 50 0 0 0
SMALL
GASTEIGER

@<TRIPOS>ATOM
      1 C          23.1602   18.5462    0.1516 C.3     1  UNL1        0.1087
      2 N          24.2198   19.3688   -0.5198 N.am    1  UNL1       -0.2996
      3 C          24.2199   20.8610   -0.3669 C.2     1  UNL1        0.2459
      4 O          23.1605   21.5306    0.4574 O.2     1  UNL1       -0.2701
      5 H          24.9151   18.9294   -1.0608 H       1  UNL1        0.1498
      6 C          25.2794   21.6836   -1.0382 C.ar    1  UNL1        0.0532
      7 C          25.8325   22.8979   -0.3530 C.ar    1  UNL1        0.0090
      8 C          26.8921   23.7206   -1.0243 C.ar    1  UNL1        0.0534
      9 C          27.3985   23.3289   -2.3808 C.ar    1  UNL1        0.0003
     10 C          26.8453   22.1146   -3.0660 C.ar    1  UNL1       -0.0216
     11 C          25.7858   21.2920   -2.3947 C.ar    1  UNL1        0.0003
     12 C          27.3518   21.7229   -4.4226 C.3     1  UNL1        0.0310
     13 C          27.4452   24.9349   -0.3391 C.2     1  UNL1        0.2490
     14 O          28.9002   24.9956    0.0207 O.2     1  UNL1       -0.2699
     15 N          26.5434   26.0885   -0.0137 N.am    1  UNL1       -0.2761
     16 C          27.0965   27.3028    0.6716 C.3     1  UNL1        0.0937
     17 C          26.4295   27.8376    1.9041 C.3     1  UNL1        0.0215
     18 C          26.5946   29.2802    2.2803 C.3     1  UNL1        0.0018
     19 C          25.0884   26.0278   -0.3734 C.3     1  UNL1        0.0937
     20 C          24.5095   27.0295   -1.3282 C.3     1  UNL1        0.0215
     21 C          23.7962   28.2403   -0.8038 C.3     1  UNL1        0.0018
     22 C          22.9116   18.6996    1.6228 C.3     1  UNL1        0.1781
     23 O          24.0500   18.5806    2.5923 O.3     1  UNL1       -0.3777
     24 H          24.9470   18.4045    2.2678 H       1  UNL1        0.2106
     25 C          21.5244   18.9720    2.1247 C.3     1  UNL1        0.0852
     26 N          20.7818   18.1628    3.1463 N.4     1  UNL1        0.2548
     27 C          19.4348   18.7920    3.3461 C.3     1  UNL1        0.1464
     28 C          19.3451   19.9901    2.4478 C.3     1  UNL1        0.2260
     29 C          20.6365   20.1012    1.6930 C.3     1  UNL1        0.1071
     30 H          21.1314   17.3308    3.6218 H       1  UNL1        0.2035
     31 H          20.1581   17.7177    3.8196 H       1  UNL1        0.2035
     32 O          18.1702   20.9145    2.3259 O.3     1  UNL1       -0.4729
     33 C          18.2858   22.1715    1.5156 C.ar    1  UNL1        0.1387
     34 C          18.2435   22.1049    0.0177 C.ar    1  UNL1        0.0369
     35 C          18.3591   23.3618   -0.7927 C.ar    1  UNL1        0.0031
     36 C          18.5171   24.6855   -0.1050 C.ar    1  UNL1        0.0002
     37 C          18.5595   24.7522    1.3929 C.ar    1  UNL1        0.0031
     38 C          18.4439   23.4953    2.2032 C.ar    1  UNL1        0.0369
     39 C          22.3493   17.5702   -0.6484 C.3     1  UNL1        0.0487
     40 F          24.7970   15.8448   -4.8948 F       1  UNL1       -0.2041
     41 C          23.7103   16.6647   -4.2647 C.ar    1  UNL1        0.1421
     42 C          23.5731   16.7076   -2.7716 C.ar    1  UNL1        0.0256
     43 C          22.4865   17.5274   -2.1415 C.ar    1  UNL1       -0.0160
     44 C          21.5370   18.3045   -3.0045 C.ar    1  UNL1        0.0256
     45 C          21.6743   18.2616   -4.4976 C.ar    1  UNL1        0.1421
     46 F          20.7248   19.0387   -5.3606 F       1  UNL1       -0.2041
     47 C          22.7609   17.4417   -5.1277 C.ar    1  UNL1        0.0592
@<TRIPOS>UNITY_ATOM_ATTR
26 1
charge 1
@<TRIPOS>BOND
     1    40    41    1
     2    41    42   ar
     3    42    43   ar
     4    43    44   ar
     5    44    45   ar
     6    45    46    1
     7    45    47   ar
     8    43    39    1
     9     1    39    1
    10     1     2    1
    11     2     3   am
    12     3     4    2
    13     3     6    1
    14     6     7   ar
    15     7     8   ar
    16     8     9   ar
    17     9    10   ar
    18    10    11   ar
    19    10    12    1
    20     8    13    1
    21    13    14    2
    22    13    15   am
    23    15    16    1
    24    16    17    1
    25    17    18    1
    26    15    19    1
    27    19    20    1
    28    20    21    1
    29     1    22    1
    30    22    23    1
    31    22    25    1
    32    25    26    1
    33    26    27    1
    34    27    28    1
    35    28    32    1
    36    32    33    1
    37    33    34   ar
    38    34    35   ar
    39    35    36   ar
    40    36    37   ar
    41    37    38   ar
    42    28    29    1
    43    47    41   ar
    44    11     6   ar
    45    25    29    1
    46    38    33   ar
    47     2     5    1
    48    23    24    1
    49    26    30    1
    50    26    31    1
@<TRIPOS>MOLECULE
*****
 47 50 0 0 0
SMALL
GASTEIGER

@<TRIPOS>ATOM
      1 C          25.5521   25.6612    0.2576 C.3     1  UNL1        0.1087
      2 N          25.3460   24.4579   -0.6141 N.am    1  UNL1       -0.2996
      3 C          25.6361   23.0865   -0.0803 C.2     1  UNL1        0.2459
      4 O          26.1324   22.9183    1.3253 O.2     1  UNL1       -0.2701
      5 H          25.0203   24.5684   -1.5366 H       1  UNL1        0.1498
      6 C          25.4301   21.8833   -0.9519 C.ar    1  UNL1        0.0532
      7 C          24.6982   20.6875   -0.4188 C.ar    1  UNL1        0.0090
      8 C          24.4921   19.4842   -1.2904 C.ar    1  UNL1        0.0534
      9 C          25.0179   19.4768   -2.6953 C.ar    1  UNL1        0.0003
     10 C          25.7498   20.6728   -3.2284 C.ar    1  UNL1       -0.0216
     11 C          25.9558   21.8760   -2.3567 C.ar    1  UNL1        0.0003
     12 C          26.2756   20.6654   -4.6332 C.3     1  UNL1        0.0310
     13 C          23.7603   18.2883   -0.7573 C.2     1  UNL1        0.2490
     14 O          24.5214   17.1732   -0.1037 O.2     1  UNL1       -0.2699
     15 N          22.2673   18.2076   -0.8777 N.am    1  UNL1       -0.2761
     16 C          21.5355   17.0116   -0.3445 C.3     1  UNL1        0.0937
     17 C          21.0978   16.9783    1.0899 C.3     1  UNL1        0.0215
     18 C          21.4146   18.1296    1.9976 C.3     1  UNL1        0.0018
     19 C          21.5062   19.3227   -1.5313 C.3     1  UNL1        0.0937
     20 C          20.0369   19.4800   -1.2731 C.3     1  UNL1        0.0215
     21 C          19.5376   20.6407   -0.4647 C.3     1  UNL1        0.0018
     22 C          26.3527   26.8248   -0.2472 C.3     1  UNL1        0.1781
     23 O          27.8509   26.7537   -0.2635 O.3     1  UNL1       -0.3777
     24 H          28.3020   25.9553    0.0525 H       1  UNL1        0.2106
     25 C          25.6550   28.0596   -0.7358 C.3     1  UNL1        0.0852
     26 N          25.0047   28.2327   -2.0764 N.4     1  UNL1        0.2548
     27 C          24.4330   29.6181   -2.1388 C.3     1  UNL1        0.1464
     28 C          24.7301   30.3012   -0.8367 C.3     1  UNL1        0.2260
     29 C          25.4853   29.3380    0.0303 C.3     1  UNL1        0.1071
     30 H          24.9592   27.5314   -2.8157 H       1  UNL1        0.2035
     31 H          24.5265   28.4979   -2.9374 H       1  UNL1        0.2035
     32 O          24.3403   31.7015   -0.4668 O.3     1  UNL1       -0.4729
     33 C          22.9544   31.9877    0.0307 C.ar    1  UNL1        0.1387
     34 C          21.8006   31.9978   -0.9277 C.ar    1  UNL1        0.0369
     35 C          20.4147   32.2840   -0.4303 C.ar    1  UNL1        0.0031
     36 C          20.1827   32.5601    1.0257 C.ar    1  UNL1        0.0002
     37 C          21.3364   32.5501    1.9842 C.ar    1  UNL1        0.0031
     38 C          22.7223   32.2639    1.4867 C.ar    1  UNL1        0.0369
     39 C          24.9575   25.7006    1.6342 C.3     1  UNL1        0.0487
     40 F          21.1075   29.1299    2.2802 F       1  UNL1       -0.2041
     41 C          21.5728   27.7113    2.1355 C.ar    1  UNL1        0.1421
     42 C          23.0324   27.4153    1.9572 C.ar    1  UNL1        0.0256
     43 C          23.4978   25.9966    1.8125 C.ar    1  UNL1       -0.0160
     44 C          22.5035   24.8740    1.8461 C.ar    1  UNL1        0.0256
     45 C          21.0439   25.1701    2.0244 C.ar    1  UNL1        0.1421
     46 F          20.0496   24.0474    2.0580 F       1  UNL1       -0.2041
     47 C          20.5786   26.5887    2.1691 C.ar    1  UNL1        0.0592
@<TRIPOS>UNITY_ATOM_ATTR
26 1
charge 1
@<TRIPOS>BOND
     1    40    41    1
     2    41    42   ar
     3    42    43   ar
     4    43    44   ar
     5    44    45   ar
     6    45    46    1
     7    45    47   ar
     8    43    39    1
     9     1    39    1
    10     1     2    1
    11     2     3   am
    12     3     4    2
    13     3     6    1
    14     6     7   ar
    15     7     8   ar
    16     8     9   ar
    17     9    10   ar
    18    10    11   ar
    19    10    12    1
    20     8    13    1
    21    13    14    2
    22    13    15   am
    23    15    16    1
    24    16    17    1
    25    17    18    1
    26    15    19    1
    27    19    20    1
    28    20    21    1
    29     1    22    1
    30    22    23    1
    31    22    25    1
    32    25    26    1
    33    26    27    1
    34    27    28    1
    35    28    32    1
    36    32    33    1
    37    33    34   ar
    38    34    35   ar
    39    35    36   ar
    40    36    37   ar
    41    37    38   ar
    42    28    29    1
    43    47    41   ar
    44    11     6   ar
    45    25    29    1
    46    38    33   ar
    47     2     5    1
    48    23    24    1
    49    26    30    1
    50    26    31    1
@<TRIPOS>MOLECULE
*****
 47 50 0 0 0
SMALL
GASTEIGER

@<TRIPOS>ATOM
      1 C          22.4824   19.5110    0.3205 C.3     1  UNL1        0.1087
      2 N          23.3308   20.7472    0.2735 N.am    1  UNL1       -0.2996
      3 C          24.5535   20.7851   -0.5947 C.2     1  UNL1        0.2459
      4 O          24.9277   19.5869   -1.4159 O.2     1  UNL1       -0.2701
      5 H          23.0852   21.5335    0.8125 H       1  UNL1        0.1498
      6 C          25.4019   22.0212   -0.6416 C.ar    1  UNL1        0.0532
      7 C          25.3010   23.0421    0.4527 C.ar    1  UNL1        0.0090
      8 C          26.1494   24.2782    0.4057 C.ar    1  UNL1        0.0534
      9 C          27.0987   24.4935   -0.7356 C.ar    1  UNL1        0.0003
     10 C          27.1995   23.4726   -1.8300 C.ar    1  UNL1       -0.0216
     11 C          26.3511   22.2365   -1.7830 C.ar    1  UNL1        0.0003
     12 C          28.1487   23.6878   -2.9713 C.3     1  UNL1        0.0310
     13 C          26.0486   25.2991    1.5001 C.2     1  UNL1        0.2490
     14 O          26.3787   24.9190    2.9131 O.2     1  UNL1       -0.2699
     15 N          25.6177   26.7001    1.1815 N.am    1  UNL1       -0.2761
     16 C          25.5169   27.7210    2.2759 C.3     1  UNL1        0.0937
     17 C          25.7863   29.1667    1.9802 C.3     1  UNL1        0.0215
     18 C          27.1942   29.6839    1.9870 C.3     1  UNL1        0.0018
     19 C          25.2877   27.0803   -0.2315 C.3     1  UNL1        0.0937
     20 C          23.8706   27.0034   -0.7174 C.3     1  UNL1        0.0215
     21 C          22.7597   26.7246    0.2512 C.3     1  UNL1        0.0018
     22 C          21.8582   18.9816   -0.9365 C.3     1  UNL1        0.1781
     23 O          22.5801   17.9545   -1.7574 O.3     1  UNL1       -0.3777
     24 H          23.4506   17.6327   -1.4755 H       1  UNL1        0.2106
     25 C          20.5119   19.4792   -1.3725 C.3     1  UNL1        0.0852
     26 N          19.5589   18.7617   -2.2819 N.4     1  UNL1        0.2548
     27 C          18.3403   19.6208   -2.4472 C.3     1  UNL1        0.1464
     28 C          18.5404   20.8692   -1.6399 C.3     1  UNL1        0.2260
     29 C          19.8825   20.7817   -0.9758 C.3     1  UNL1        0.1071
     30 H          19.7125   17.8498   -2.7123 H       1  UNL1        0.2035
     31 H          18.8155   18.4007   -2.8797 H       1  UNL1        0.2035
     32 O          17.5689   22.0055   -1.5183 O.3     1  UNL1       -0.4729
     33 C          17.7689   23.0536   -0.4640 C.ar    1  UNL1        0.1387
     34 C          17.0032   22.9781    0.8236 C.ar    1  UNL1        0.0369
     35 C          17.2032   24.0262    1.8779 C.ar    1  UNL1        0.0031
     36 C          18.1690   25.1499    1.6445 C.ar    1  UNL1        0.0002
     37 C          18.9348   25.2255    0.3569 C.ar    1  UNL1        0.0031
     38 C          18.7348   24.1774   -0.6973 C.ar    1  UNL1        0.0369
     39 C          22.2583   18.8042    1.6245 C.3     1  UNL1        0.0487
     40 F          19.8675   18.8848    6.2372 F       1  UNL1       -0.2041
     41 C          19.8606   19.1735    4.7653 C.ar    1  UNL1        0.1421
     42 C          21.0629   18.8446    3.9308 C.ar    1  UNL1        0.0256
     43 C          21.0560   19.1333    2.4589 C.ar    1  UNL1       -0.0160
     44 C          19.8469   19.7510    1.8214 C.ar    1  UNL1        0.0256
     45 C          18.6447   20.0800    2.6559 C.ar    1  UNL1        0.1421
     46 F          17.4355   20.6977    2.0184 F       1  UNL1       -0.2041
     47 C          18.6515   19.7913    4.1278 C.ar    1  UNL1        0.0592
@<TRIPOS>UNITY_ATOM_ATTR
26 1
charge 1
@<TRIPOS>BOND
     1    40    41    1
     2    41    42   ar
     3    42    43   ar
     4    43    44   ar
     5    44    45   ar
     6    45    46    1
     7    45    47   ar
     8    43    39    1
     9     1    39    1
    10     1     2    1
    11     2     3   am
    12     3     4    2
    13     3     6    1
    14     6     7   ar
    15     7     8   ar
    16     8     9   ar
    17     9    10   ar
    18    10    11   ar
    19    10    12    1
    20     8    13    1
    21    13    14    2
    22    13    15   am
    23    15    16    1
    24    16    17    1
    25    17    18    1
    26    15    19    1
    27    19    20    1
    28    20    21    1
    29     1    22    1
    30    22    23    1
    31    22    25    1
    32    25    26    1
    33    26    27    1
    34    27    28    1
    35    28    32    1
    36    32    33    1
    37    33    34   ar
    38    34    35   ar
    39    35    36   ar
    40    36    37   ar
    41    37    38   ar
    42    28    29    1
    43    47    41   ar
    44    11     6   ar
    45    25    29    1
    46    38    33   ar
    47     2     5    1
    48    23    24    1
    49    26    30    1
    50    26    31    1
@<TRIPOS>MOLECULE
*****
 47 50 0 0 0
SMALL
GASTEIGER

@<TRIPOS>ATOM
      1 C          21.2465   19.9624    0.4117 C.3     1  UNL1        0.1087
      2 N          20.4981   18.9516   -0.4058 N.am    1  UNL1       -0.2996
      3 C          20.0555   17.6615    0.2184 C.2     1  UNL1        0.2459
      4 O          20.3612   17.3821    1.6601 O.2     1  UNL1       -0.2701
      5 H          20.2975   19.1350   -1.3521 H       1  UNL1        0.1498
      6 C          19.3072   16.6507   -0.5991 C.ar    1  UNL1        0.0532
      7 C          19.3233   15.2044   -0.2017 C.ar    1  UNL1        0.0090
      8 C          18.5749   14.1936   -1.0192 C.ar    1  UNL1        0.0534
      9 C          17.8105   14.6291   -2.2341 C.ar    1  UNL1        0.0003
     10 C          17.7944   16.0755   -2.6315 C.ar    1  UNL1       -0.0216
     11 C          18.5427   17.0862   -1.8140 C.ar    1  UNL1        0.0003
     12 C          17.0300   16.5110   -3.8464 C.3     1  UNL1        0.0310
     13 C          18.5911   12.7473   -0.6218 C.2     1  UNL1        0.2490
     14 O          17.3754   12.1269    0.0007 O.2     1  UNL1       -0.2699
     15 N          19.8228   11.9213   -0.8469 N.am    1  UNL1       -0.2761
     16 C          19.8388   10.4750   -0.4495 C.3     1  UNL1        0.0937
     17 C          20.1562   10.0893    0.9649 C.3     1  UNL1        0.0215
     18 C          21.3534    9.2348    1.2587 C.3     1  UNL1        0.0018
     19 C          21.0383   12.5416   -1.4694 C.3     1  UNL1        0.0937
     20 C          22.2518   11.7031   -1.7427 C.3     1  UNL1        0.0215
     21 C          23.3740   11.6614   -0.7484 C.3     1  UNL1        0.0018
     22 C          22.7446   20.0122    0.3550 C.3     1  UNL1        0.1781
     23 O          23.4521   21.3348    0.3696 O.3     1  UNL1       -0.3777
     24 H          22.9409   22.1578    0.4157 H       1  UNL1        0.2106
     25 C          23.5352   18.7394    0.2836 C.3     1  UNL1        0.0852
     26 N          24.2071   18.1863   -0.9381 N.4     1  UNL1        0.2548
     27 C          24.8798   16.9013   -0.5555 C.3     1  UNL1        0.1464
     28 C          24.6237   16.6604    0.9028 C.3     1  UNL1        0.2260
     29 C          23.7926   17.7964    1.4213 C.3     1  UNL1        0.1071
     30 H          24.2066   18.6096   -1.8662 H       1  UNL1        0.2035
     31 H          24.7104   17.6902   -1.6737 H       1  UNL1        0.2035
     32 O          25.1126   15.4892    1.7021 O.3     1  UNL1       -0.4729
     33 C          24.1494   14.4268    2.1421 C.ar    1  UNL1        0.1387
     34 C          24.6118   13.3231    3.0466 C.ar    1  UNL1        0.0369
     35 C          23.6486   12.2608    3.4866 C.ar    1  UNL1        0.0031
     36 C          22.2229   12.3021    3.0222 C.ar    1  UNL1        0.0002
     37 C          21.7604   13.4058    2.1177 C.ar    1  UNL1        0.0031
     38 C          22.7237   14.4682    1.6777 C.ar    1  UNL1        0.0369
     39 C          20.4967   20.9233    1.2861 C.3     1  UNL1        0.0487
     40 F          19.4202   25.9998    1.5511 F       1  UNL1       -0.2041
     41 C          19.3390   24.6910    0.8228 C.ar    1  UNL1        0.1421
     42 C          19.9584   23.4616    1.4185 C.ar    1  UNL1        0.0256
     43 C          19.8772   22.1527    0.6903 C.ar    1  UNL1       -0.0160
     44 C          19.1766   22.0733   -0.6336 C.ar    1  UNL1        0.0256
     45 C          18.5571   23.3026   -1.2293 C.ar    1  UNL1        0.1421
     46 F          17.8564   23.2232   -2.5532 F       1  UNL1       -0.2041
     47 C          18.6383   24.6115   -0.5010 C.ar    1  UNL1        0.0592
@<TRIPOS>UNITY_ATOM_ATTR
26 1
charge 1
@<TRIPOS>BOND
     1    40    41    1
     2    41    42   ar
     3    42    43   ar
     4    43    44   ar
     5    44    45   ar
     6    45    46    1
     7    45    47   ar
     8    43    39    1
     9     1    39    1
    10     1     2    1
    11     2     3   am
    12     3     4    2
    13     3     6    1
    14     6     7   ar
    15     7     8   ar
    16     8     9   ar
    17     9    10   ar
    18    10    11   ar
    19    10    12    1
    20     8    13    1
    21    13    14    2
    22    13    15   am
    23    15    16    1
    24    16    17    1
    25    17    18    1
    26    15    19    1
    27    19    20    1
    28    20    21    1
    29     1    22    1
    30    22    23    1
    31    22    25    1
    32    25    26    1
    33    26    27    1
    34    27    28    1
    35    28    32    1
    36    32    33    1
    37    33    34   ar
    38    34    35   ar
    39    35    36   ar
    40    36    37   ar
    41    37    38   ar
    42    28    29    1
    43    47    41   ar
    44    11     6   ar
    45    25    29    1
    46    38    33   ar
    47     2     5    1
    48    23    24    1
    49    26    30    1
    50    26    31    1
@<TRIPOS>MOLECULE
*****
 47 50 0 0 0
SMALL
GASTEIGER

@<TRIPOS>ATOM
      1 C          25.6443   25.2516    0.9452 C.3     1  UNL1        0.1087
      2 N          25.5929   23.8864    0.3258 N.am    1  UNL1       -0.2996
      3 C          26.0058   23.6952   -1.1036 C.2     1  UNL1        0.2459
      4 O          26.4700   24.8694   -1.9135 O.2     1  UNL1       -0.2701
      5 H          25.2883   23.1158    0.8574 H       1  UNL1        0.1498
      6 C          25.9544   22.3301   -1.7229 C.ar    1  UNL1        0.0532
      7 C          25.4141   21.1709   -0.9393 C.ar    1  UNL1        0.0090
      8 C          25.3627   19.8056   -1.5586 C.ar    1  UNL1        0.0534
      9 C          25.8517   19.5997   -2.9616 C.ar    1  UNL1        0.0003
     10 C          26.3921   20.7590   -3.7453 C.ar    1  UNL1       -0.0216
     11 C          26.4434   22.1242   -3.1259 C.ar    1  UNL1        0.0003
     12 C          26.8811   20.5531   -5.1483 C.3     1  UNL1        0.0310
     13 C          24.8224   18.6464   -0.7750 C.2     1  UNL1        0.2490
     14 O          25.7500   17.7937    0.0389 O.2     1  UNL1       -0.2699
     15 N          23.3543   18.3398   -0.8051 N.am    1  UNL1       -0.2761
     16 C          22.8140   17.1805   -0.0214 C.3     1  UNL1        0.0937
     17 C          22.5441   17.3283    1.4467 C.3     1  UNL1        0.0215
     18 C          22.3955   18.6944    2.0481 C.3     1  UNL1        0.0018
     19 C          22.4267   19.1924   -1.6190 C.3     1  UNL1        0.0937
     20 C          21.7621   18.6251   -2.8383 C.3     1  UNL1        0.0215
     21 C          22.5908   18.1924   -4.0113 C.3     1  UNL1        0.0018
     22 C          26.4488   26.3393    0.2974 C.3     1  UNL1        0.1781
     23 O          27.9426   26.2246    0.2234 O.3     1  UNL1       -0.3777
     24 H          28.3883   25.4472    0.5945 H       1  UNL1        0.2106
     25 C          25.7595   27.5416   -0.2766 C.3     1  UNL1        0.0852
     26 N          25.0626   27.6088   -1.6031 N.4     1  UNL1        0.2548
     27 C          24.5185   28.9966   -1.7711 C.3     1  UNL1        0.1464
     28 C          24.8793   29.7870   -0.5484 C.3     1  UNL1        0.2260
     29 C          25.6463   28.8878    0.3753 C.3     1  UNL1        0.1071
     30 H          24.9741   26.8449   -2.2732 H       1  UNL1        0.2035
     31 H          24.5577   27.8068   -2.4670 H       1  UNL1        0.2035
     32 O          24.5337   31.2243   -0.2940 O.3     1  UNL1       -0.4729
     33 C          23.1267   31.6063    0.0587 C.ar    1  UNL1        0.1387
     34 C          22.7646   31.9022    1.4839 C.ar    1  UNL1        0.0369
     35 C          21.3576   32.2842    1.8366 C.ar    1  UNL1        0.0031
     36 C          20.3126   32.3704    0.7639 C.ar    1  UNL1        0.0002
     37 C          20.6747   32.0745   -0.6613 C.ar    1  UNL1        0.0031
     38 C          22.0817   31.6924   -1.0140 C.ar    1  UNL1        0.0369
     39 C          24.8911   25.5291    2.2123 C.3     1  UNL1        0.0487
     40 F          19.9758   23.8825    1.8541 F       1  UNL1       -0.2041
     41 C          20.9642   25.0035    1.9825 C.ar    1  UNL1        0.1421
     42 C          22.4334   24.7058    2.0332 C.ar    1  UNL1        0.0256
     43 C          23.4218   25.8268    2.1616 C.ar    1  UNL1       -0.0160
     44 C          22.9409   27.2455    2.2392 C.ar    1  UNL1        0.0256
     45 C          21.4716   27.5432    2.1885 C.ar    1  UNL1        0.1421
     46 F          20.9907   28.9619    2.2661 F       1  UNL1       -0.2041
     47 C          20.4833   26.4222    2.0601 C.ar    1  UNL1        0.0592
@<TRIPOS>UNITY_ATOM_ATTR
26 1
charge 1
@<TRIPOS>BOND
     1    40    41    1
     2    41    42   ar
     3    42    43   ar
     4    43    44   ar
     5    44    45   ar
     6    45    46    1
     7    45    47   ar
     8    43    39    1
     9     1    39    1
    10     1     2    1
    11     2     3   am
    12     3     4    2
    13     3     6    1
    14     6     7   ar
    15     7     8   ar
    16     8     9   ar
    17     9    10   ar
    18    10    11   ar
    19    10    12    1
    20     8    13    1
    21    13    14    2
    22    13    15   am
    23    15    16    1
    24    16    17    1
    25    17    18    1
    26    15    19    1
    27    19    20    1
    28    20    21    1
    29     1    22    1
    30    22    23    1
    31    22    25    1
    32    25    26    1
    33    26    27    1
    34    27    28    1
    35    28    32    1
    36    32    33    1
    37    33    34   ar
    38    34    35   ar
    39    35    36   ar
    40    36    37   ar
    41    37    38   ar
    42    28    29    1
    43    47    41   ar
    44    11     6   ar
    45    25    29    1
    46    38    33   ar
    47     2     5    1
    48    23    24    1
    49    26    30    1
    50    26    31    1
@<TRIPOS>MOLECULE
*****
 49 52 0 0 0
SMALL
GASTEIGER

@<TRIPOS>ATOM
      1 C          22.6057   19.8916    0.3434 C.3     1  UNL1        0.1092
      2 N          23.3463   21.1956    0.3060 N.am    1  UNL1       -0.2995
      3 C          24.7096   21.2663   -0.3156 C.2     1  UNL1        0.2459
      4 O          25.3323   20.0330   -0.8999 O.2     1  UNL1       -0.2701
      5 H          22.9376   22.0050    0.6895 H       1  UNL1        0.1498
      6 C          25.4502   22.5702   -0.3529 C.ar    1  UNL1        0.0532
      7 C          25.1111   23.6535    0.6275 C.ar    1  UNL1        0.0090
      8 C          25.8517   24.9575    0.5902 C.ar    1  UNL1        0.0534
      9 C          26.9313   25.1780   -0.4276 C.ar    1  UNL1        0.0003
     10 C          27.2703   24.0945   -1.4081 C.ar    1  UNL1       -0.0216
     11 C          26.5297   22.7906   -1.3707 C.ar    1  UNL1        0.0003
     12 C          28.3499   24.3150   -2.4258 C.3     1  UNL1        0.0310
     13 C          25.5126   26.0409    1.5706 C.2     1  UNL1        0.2490
     14 O          26.3036   26.1803    2.8375 O.2     1  UNL1       -0.2699
     15 N          24.3827   26.9849    1.2841 N.am    1  UNL1       -0.2761
     16 C          24.0437   28.0684    2.2646 C.3     1  UNL1        0.0937
     17 C          24.4770   29.4801    2.0018 C.3     1  UNL1        0.0215
     18 C          23.5316   30.4461    1.3515 C.3     1  UNL1        0.0018
     19 C          23.5918   26.8456    0.0173 C.3     1  UNL1        0.0937
     20 C          23.9041   27.7188   -1.1618 C.3     1  UNL1        0.0215
     21 C          25.2936   28.2497   -1.3548 C.3     1  UNL1        0.0018
     22 C          23.1531   18.7406    1.1342 C.3     1  UNL1        0.1873
     23 O          23.5491   18.9364    2.5677 O.3     1  UNL1       -0.3773
     24 H          23.4511   19.8074    2.9833 H       1  UNL1        0.2107
     25 C          23.3046   17.3937    0.4916 C.3     1  UNL1        0.1585
     26 N          24.1938   17.2294   -0.7052 N.4     1  UNL1        0.2599
     27 C          24.3453   15.8826   -1.3478 C.3     1  UNL1        0.1245
     28 C          23.6075   14.7000   -0.7937 C.3     1  UNL1        0.1548
     29 N          22.7183   14.8642    0.4031 N.am    1  UNL1       -0.2651
     30 C          22.5668   16.2111    1.0457 C.2     1  UNL1        0.2781
     31 O          21.6776   16.3753    2.2425 O.2     1  UNL1       -0.2686
     32 H          24.6955   18.0336   -1.0820 H       1  UNL1        0.2039
     33 H          24.7985   17.1177   -1.5190 H       1  UNL1        0.2039
     34 C          21.9805   13.6815    0.9573 C.3     1  UNL1        0.1205
     35 C          22.7097   12.6608    1.7798 C.ar    1  UNL1       -0.0023
     36 C          22.6120   11.2058    1.4285 C.ar    1  UNL1       -0.0026
     37 C          23.3412   10.1851    2.2510 C.ar    1  UNL1       -0.0003
     38 C          24.1680   10.6195    3.4248 C.ar    1  UNL1       -0.0000
     39 C          24.2656   12.0745    3.7761 C.ar    1  UNL1       -0.0003
     40 C          23.5364   13.0952    2.9536 C.ar    1  UNL1       -0.0026
     41 C          21.3178   19.7387   -0.4102 C.3     1  UNL1        0.0487
     42 F          17.8670   20.5877    3.3808 F       1  UNL1       -0.2041
     43 C          18.3481   20.8377    1.9822 C.ar    1  UNL1        0.1421
     44 C          19.5923   20.1633    1.4853 C.ar    1  UNL1        0.0256
     45 C          20.0735   20.4133    0.0867 C.ar    1  UNL1       -0.0160
     46 C          19.3105   21.3378   -0.8149 C.ar    1  UNL1        0.0256
     47 C          18.0663   22.0123   -0.3180 C.ar    1  UNL1        0.1421
     48 F          17.3031   22.9368   -1.2197 F       1  UNL1       -0.2041
     49 C          17.5851   21.7622    1.0806 C.ar    1  UNL1        0.0592
@<TRIPOS>UNITY_ATOM_ATTR
26 1
charge 1
@<TRIPOS>BOND
     1    42    43    1
     2    43    44   ar
     3    44    45   ar
     4    45    46   ar
     5    46    47   ar
     6    47    48    1
     7    47    49   ar
     8    45    41    1
     9     1    41    1
    10     1     2    1
    11     2     3   am
    12     3     4    2
    13     3     6    1
    14     6     7   ar
    15     7     8   ar
    16     8     9   ar
    17     9    10   ar
    18    10    11   ar
    19    10    12    1
    20     8    13    1
    21    13    14    2
    22    13    15   am
    23    15    16    1
    24    16    17    1
    25    17    18    1
    26    15    19    1
    27    19    20    1
    28    20    21    1
    29     1    22    1
    30    22    23    1
    31    22    25    1
    32    25    26    1
    33    26    27    1
    34    27    28    1
    35    28    29    1
    36    29    34    1
    37    34    35    1
    38    35    36   ar
    39    36    37   ar
    40    37    38   ar
    41    38    39   ar
    42    39    40   ar
    43    29    30   am
    44    30    31    2
    45    49    43   ar
    46    11     6   ar
    47    30    25    1
    48    40    35   ar
    49     2     5    1
    50    23    24    1
    51    26    32    1
    52    26    33    1
@<TRIPOS>MOLECULE
*****
 49 52 0 0 0
SMALL
GASTEIGER

@<TRIPOS>ATOM
      1 C          22.0448   20.3975    1.0539 C.3     1  UNL1        0.1092
      2 N          22.9492   21.2416    0.2056 N.am    1  UNL1       -0.2995
      3 C          24.4155   20.9332    0.1357 C.2     1  UNL1        0.2459
      4 O          24.9774   19.7807    0.9142 O.2     1  UNL1       -0.2701
      5 H          22.5804   21.9981   -0.3053 H       1  UNL1        0.1498
      6 C          25.3198   21.7773   -0.7126 C.ar    1  UNL1        0.0532
      7 C          25.8316   23.0868   -0.1901 C.ar    1  UNL1        0.0090
      8 C          26.7360   23.9310   -1.0384 C.ar    1  UNL1        0.0534
      9 C          27.1286   23.4654   -2.4092 C.ar    1  UNL1        0.0003
     10 C          26.6168   22.1558   -2.9317 C.ar    1  UNL1       -0.0216
     11 C          25.7125   21.3117   -2.0834 C.ar    1  UNL1        0.0003
     12 C          27.0094   21.6903   -4.3025 C.3     1  UNL1        0.0310
     13 C          27.2478   25.2405   -0.5158 C.2     1  UNL1        0.2490
     14 O          28.6337   25.3319    0.0508 O.2     1  UNL1       -0.2699
     15 N          26.3737   26.4587   -0.5599 N.am    1  UNL1       -0.2761
     16 C          26.8855   27.7684   -0.0373 C.3     1  UNL1        0.0937
     17 C          26.7893   28.0808    1.4266 C.3     1  UNL1        0.0215
     18 C          26.5121   26.9836    2.4111 C.3     1  UNL1        0.0018
     19 C          24.9879   26.3674   -1.1264 C.3     1  UNL1        0.0937
     20 C          23.8665   27.1367   -0.4933 C.3     1  UNL1        0.0215
     21 C          23.1314   26.5612    0.6808 C.3     1  UNL1        0.0018
     22 C          22.3972   18.9662    1.3316 C.3     1  UNL1        0.1873
     23 O          23.0073   18.5859    2.6481 O.3     1  UNL1       -0.3773
     24 H          23.1740   19.2655    3.3199 H       1  UNL1        0.2107
     25 C          22.1396   17.9152    0.2928 C.3     1  UNL1        0.1585
     26 N          23.1838   17.6093   -0.7396 N.4     1  UNL1        0.2599
     27 C          22.9262   16.5583   -1.7784 C.3     1  UNL1        0.1245
     28 C          21.6244   15.8133   -1.7847 C.3     1  UNL1        0.1548
     29 N          20.5801   16.1193   -0.7523 N.am    1  UNL1       -0.2651
     30 C          20.8377   17.1702    0.2865 C.2     1  UNL1        0.2781
     31 O          19.7935   17.4762    1.3189 O.2     1  UNL1       -0.2686
     32 H          24.0691   18.1159   -0.7353 H       1  UNL1        0.2039
     33 H          23.8939   17.4012   -1.4417 H       1  UNL1        0.2039
     34 C          19.2782   15.3742   -0.7587 C.3     1  UNL1        0.1205
     35 C          18.2180   15.7254   -1.7600 C.ar    1  UNL1       -0.0023
     36 C          17.2337   14.6851   -2.2062 C.ar    1  UNL1       -0.0026
     37 C          16.1735   15.0363   -3.2075 C.ar    1  UNL1       -0.0003
     38 C          16.0976   16.4278   -3.7627 C.ar    1  UNL1       -0.0000
     39 C          17.0819   17.4680   -3.3165 C.ar    1  UNL1       -0.0003
     40 C          18.1421   17.1168   -2.3151 C.ar    1  UNL1       -0.0026
     41 C          20.7880   20.9848    1.6246 C.3     1  UNL1        0.0487
     42 F          19.5733   26.0208    1.2211 F       1  UNL1       -0.2041
     43 C          19.4790   24.6162    0.7031 C.ar    1  UNL1        0.1421
     44 C          20.1806   23.5028    1.4228 C.ar    1  UNL1        0.0256
     45 C          20.0864   22.0982    0.9048 C.ar    1  UNL1       -0.0160
     46 C          19.2905   21.8071   -0.3328 C.ar    1  UNL1        0.0256
     47 C          18.5889   22.9205   -1.0525 C.ar    1  UNL1        0.1421
     48 F          17.7931   22.6294   -2.2903 F       1  UNL1       -0.2041
     49 C          18.6832   24.3251   -0.5345 C.ar    1  UNL1        0.0592
@<TRIPOS>UNITY_ATOM_ATTR
26 1
charge 1
@<TRIPOS>BOND
     1    42    43    1
     2    43    44   ar
     3    44    45   ar
     4    45    46   ar
     5    46    47   ar
     6    47    48    1
     7    47    49   ar
     8    45    41    1
     9     1    41    1
    10     1     2    1
    11     2     3   am
    12     3     4    2
    13     3     6    1
    14     6     7   ar
    15     7     8   ar
    16     8     9   ar
    17     9    10   ar
    18    10    11   ar
    19    10    12    1
    20     8    13    1
    21    13    14    2
    22    13    15   am
    23    15    16    1
    24    16    17    1
    25    17    18    1
    26    15    19    1
    27    19    20    1
    28    20    21    1
    29     1    22    1
    30    22    23    1
    31    22    25    1
    32    25    26    1
    33    26    27    1
    34    27    28    1
    35    28    29    1
    36    29    34    1
    37    34    35    1
    38    35    36   ar
    39    36    37   ar
    40    37    38   ar
    41    38    39   ar
    42    39    40   ar
    43    29    30   am
    44    30    31    2
    45    49    43   ar
    46    11     6   ar
    47    30    25    1
    48    40    35   ar
    49     2     5    1
    50    23    24    1
    51    26    32    1
    52    26    33    1
@<TRIPOS>MOLECULE
*****
 49 52 0 0 0
SMALL
GASTEIGER

@<TRIPOS>ATOM
      1 C          23.5502   29.7551    1.5252 C.3     1  UNL1        0.1092
      2 N          24.6633   30.2106    0.6288 N.am    1  UNL1       -0.2995
      3 C          24.6918   29.7823   -0.8085 C.2     1  UNL1        0.2459
      4 O          23.6070   28.8986   -1.3494 O.2     1  UNL1       -0.2701
      5 H          25.3753   30.7905    0.9838 H       1  UNL1        0.1498
      6 C          25.8048   30.2377   -1.7049 C.ar    1  UNL1        0.0532
      7 C          26.7719   31.2809   -1.2290 C.ar    1  UNL1        0.0090
      8 C          27.8851   31.7363   -2.1254 C.ar    1  UNL1        0.0534
      9 C          28.0311   31.1486   -3.4977 C.ar    1  UNL1        0.0003
     10 C          27.0639   30.1054   -3.9736 C.ar    1  UNL1       -0.0216
     11 C          25.9508   29.6500   -3.0772 C.ar    1  UNL1        0.0003
     12 C          27.2099   29.5176   -5.3459 C.3     1  UNL1        0.0310
     13 C          28.8522   32.7795   -1.6495 C.2     1  UNL1        0.2490
     14 O          30.1481   32.3676   -1.0161 O.2     1  UNL1       -0.2699
     15 N          28.5235   34.2345   -1.8070 N.am    1  UNL1       -0.2761
     16 C          29.4906   35.2777   -1.3310 C.3     1  UNL1        0.0937
     17 C          29.2126   36.7297   -1.5848 C.3     1  UNL1        0.0215
     18 C          28.9388   37.6531   -0.4349 C.3     1  UNL1        0.0018
     19 C          27.2277   34.6464   -2.4403 C.3     1  UNL1        0.0937
     20 C          26.0201   34.8936   -1.5853 C.3     1  UNL1        0.0215
     21 C          25.4109   36.2629   -1.5258 C.3     1  UNL1        0.0018
     22 C          23.8065   28.7046    2.5647 C.3     1  UNL1        0.1873
     23 O          24.5638   29.0525    3.8119 O.3     1  UNL1       -0.3773
     24 H          24.8879   29.9569    3.9461 H       1  UNL1        0.2107
     25 C          23.3053   27.3060    2.3572 C.3     1  UNL1        0.1585
     26 N          24.2549   26.2239    1.9359 N.4     1  UNL1        0.2599
     27 C          23.7538   24.8254    1.7283 C.3     1  UNL1        0.1245
     28 C          22.3033   24.5090    1.9420 C.3     1  UNL1        0.1548
     29 N          21.3538   25.5911    2.3633 N.am    1  UNL1       -0.2651
     30 C          21.8548   26.9896    2.5709 C.2     1  UNL1        0.2781
     31 O          20.9053   28.0717    2.9922 O.2     1  UNL1       -0.2686
     32 H          25.2413   26.4391    1.7905 H       1  UNL1        0.2039
     33 H          24.9005   25.4881    1.6494 H       1  UNL1        0.2039
     34 C          19.9031   25.2747    2.5770 C.3     1  UNL1        0.1205
     35 C          19.1569   24.4567    1.5651 C.ar    1  UNL1       -0.0023
     36 C          18.3261   23.2895    2.0094 C.ar    1  UNL1       -0.0026
     37 C          17.5799   22.4716    0.9974 C.ar    1  UNL1       -0.0003
     38 C          17.6645   22.8209   -0.4590 C.ar    1  UNL1       -0.0000
     39 C          18.4953   23.9881   -0.9033 C.ar    1  UNL1       -0.0003
     40 C          19.2415   24.8060    0.1088 C.ar    1  UNL1       -0.0026
     41 C          22.1808   30.3502    1.3821 C.3     1  UNL1        0.0487
     42 F          23.3989   35.3782    0.8957 F       1  UNL1       -0.2041
     43 C          22.6137   34.1822    0.4448 C.ar    1  UNL1        0.1421
     44 C          22.7898   32.8642    1.1389 C.ar    1  UNL1        0.0256
     45 C          22.0046   31.6683    0.6879 C.ar    1  UNL1       -0.0160
     46 C          21.0434   31.7904   -0.4571 C.ar    1  UNL1        0.0256
     47 C          20.8673   33.1084   -1.1512 C.ar    1  UNL1        0.1421
     48 F          19.9061   33.2306   -2.2962 F       1  UNL1       -0.2041
     49 C          21.6525   34.3044   -0.7002 C.ar    1  UNL1        0.0592
@<TRIPOS>UNITY_ATOM_ATTR
26 1
charge 1
@<TRIPOS>BOND
     1    42    43    1
     2    43    44   ar
     3    44    45   ar
     4    45    46   ar
     5    46    47   ar
     6    47    48    1
     7    47    49   ar
     8    45    41    1
     9     1    41    1
    10     1     2    1
    11     2     3   am
    12     3     4    2
    13     3     6    1
    14     6     7   ar
    15     7     8   ar
    16     8     9   ar
    17     9    10   ar
    18    10    11   ar
    19    10    12    1
    20     8    13    1
    21    13    14    2
    22    13    15   am
    23    15    16    1
    24    16    17    1
    25    17    18    1
    26    15    19    1
    27    19    20    1
    28    20    21    1
    29     1    22    1
    30    22    23    1
    31    22    25    1
    32    25    26    1
    33    26    27    1
    34    27    28    1
    35    28    29    1
    36    29    34    1
    37    34    35    1
    38    35    36   ar
    39    36    37   ar
    40    37    38   ar
    41    38    39   ar
    42    39    40   ar
    43    29    30   am
    44    30    31    2
    45    49    43   ar
    46    11     6   ar
    47    30    25    1
    48    40    35   ar
    49     2     5    1
    50    23    24    1
    51    26    32    1
    52    26    33    1
@<TRIPOS>MOLECULE
*****
 49 52 0 0 0
SMALL
GASTEIGER

@<TRIPOS>ATOM
      1 C          22.0005   20.4658    1.1199 C.3     1  UNL1        0.1092
      2 N          22.9191   21.2628    0.2418 N.am    1  UNL1       -0.2995
      3 C          24.3642   20.8784    0.1234 C.2     1  UNL1        0.2459
      4 O          24.8907   19.6970    0.8832 O.2     1  UNL1       -0.2701
      5 H          22.5736   22.0382   -0.2568 H       1  UNL1        0.1498
      6 C          25.2828   21.6754   -0.7546 C.ar    1  UNL1        0.0532
      7 C          25.8325   22.9849   -0.2721 C.ar    1  UNL1        0.0090
      8 C          26.7511   23.7819   -1.1501 C.ar    1  UNL1        0.0534
      9 C          27.1200   23.2694   -2.5108 C.ar    1  UNL1        0.0003
     10 C          26.5702   21.9598   -2.9933 C.ar    1  UNL1       -0.0216
     11 C          25.6516   21.1628   -2.1152 C.ar    1  UNL1        0.0003
     12 C          26.9390   21.4472   -4.3539 C.3     1  UNL1        0.0310
     13 C          27.3009   25.0914   -0.6676 C.2     1  UNL1        0.2490
     14 O          28.7462   25.2015   -0.2814 O.2     1  UNL1       -0.2699
     15 N          26.4054   26.2909   -0.5712 N.am    1  UNL1       -0.2761
     16 C          26.9552   27.6005   -0.0886 C.3     1  UNL1        0.0937
     17 C          27.2675   27.7925    1.3659 C.3     1  UNL1        0.0215
     18 C          26.4702   27.0637    2.4066 C.3     1  UNL1        0.0018
     19 C          24.9602   26.1810   -0.9574 C.3     1  UNL1        0.0937
     20 C          23.9648   27.1701   -0.4273 C.3     1  UNL1        0.0215
     21 C          22.9260   26.7318    0.5620 C.3     1  UNL1        0.0018
     22 C          22.2848   19.0167    1.3832 C.3     1  UNL1        0.1873
     23 O          23.0291   18.6113    2.6208 O.3     1  UNL1       -0.3773
     24 H          23.3266   19.2862    3.2509 H       1  UNL1        0.2107
     25 C          21.8248   17.9730    0.4089 C.3     1  UNL1        0.1585
     26 N          21.0438   18.3745   -0.8071 N.4     1  UNL1        0.2599
     27 C          20.5838   17.3309   -1.7814 C.3     1  UNL1        0.1245
     28 C          20.9048   15.8858   -1.5396 C.3     1  UNL1        0.1548
     29 N          21.6858   15.4843   -0.3235 N.am    1  UNL1       -0.2651
     30 C          22.1458   16.5279    0.6508 C.2     1  UNL1        0.2781
     31 O          22.9268   16.1264    1.8668 O.2     1  UNL1       -0.2686
     32 H          20.8256   19.3572   -0.9715 H       1  UNL1        0.2039
     33 H          20.5128   18.6476   -1.6341 H       1  UNL1        0.2039
     34 C          22.0068   14.0390   -0.0817 C.3     1  UNL1        0.1205
     35 C          21.0947   13.1993    0.7626 C.ar    1  UNL1       -0.0023
     36 C          21.5747   12.6604    2.0776 C.ar    1  UNL1       -0.0026
     37 C          20.6627   11.8207    2.9219 C.ar    1  UNL1       -0.0003
     38 C          19.2705   11.5197    2.4512 C.ar    1  UNL1       -0.0000
     39 C          18.7905   12.0586    1.1362 C.ar    1  UNL1       -0.0003
     40 C          19.7027   12.8984    0.2919 C.ar    1  UNL1       -0.0026
     41 C          20.7977   21.1178    1.7346 C.3     1  UNL1        0.0487
     42 F          19.4430   26.1170    1.3187 F       1  UNL1       -0.2041
     43 C          19.4040   24.7126    0.7934 C.ar    1  UNL1        0.1421
     44 C          20.1203   23.6175    1.5267 C.ar    1  UNL1        0.0256
     45 C          20.0813   22.2130    1.0014 C.ar    1  UNL1       -0.0160
     46 C          19.3261   21.9036   -0.2571 C.ar    1  UNL1        0.0256
     47 C          18.6098   22.9987   -0.9903 C.ar    1  UNL1        0.1421
     48 F          17.8546   22.6894   -2.2489 F       1  UNL1       -0.2041
     49 C          18.6488   24.4032   -0.4651 C.ar    1  UNL1        0.0592
@<TRIPOS>UNITY_ATOM_ATTR
26 1
charge 1
@<TRIPOS>BOND
     1    42    43    1
     2    43    44   ar
     3    44    45   ar
     4    45    46   ar
     5    46    47   ar
     6    47    48    1
     7    47    49   ar
     8    45    41    1
     9     1    41    1
    10     1     2    1
    11     2     3   am
    12     3     4    2
    13     3     6    1
    14     6     7   ar
    15     7     8   ar
    16     8     9   ar
    17     9    10   ar
    18    10    11   ar
    19    10    12    1
    20     8    13    1
    21    13    14    2
    22    13    15   am
    23    15    16    1
    24    16    17    1
    25    17    18    1
    26    15    19    1
    27    19    20    1
    28    20    21    1
    29     1    22    1
    30    22    23    1
    31    22    25    1
    32    25    26    1
    33    26    27    1
    34    27    28    1
    35    28    29    1
    36    29    34    1
    37    34    35    1
    38    35    36   ar
    39    36    37   ar
    40    37    38   ar
    41    38    39   ar
    42    39    40   ar
    43    29    30   am
    44    30    31    2
    45    49    43   ar
    46    11     6   ar
    47    30    25    1
    48    40    35   ar
    49     2     5    1
    50    23    24    1
    51    26    32    1
    52    26    33    1
@<TRIPOS>MOLECULE
*****
 49 52 0 0 0
SMALL
GASTEIGER

@<TRIPOS>ATOM
      1 C          24.7219   19.2840   -1.0728 C.3     1  UNL1        0.1092
      2 N          25.7086   18.1890   -1.3511 N.am    1  UNL1       -0.2995
      3 C          25.3150   17.0257   -2.2123 C.2     1  UNL1        0.2459
      4 O          23.9345   16.9573   -2.7952 O.2     1  UNL1       -0.2701
      5 H          26.6147   18.2339   -0.9685 H       1  UNL1        0.1498
      6 C          26.3017   15.9307   -2.4907 C.ar    1  UNL1        0.0532
      7 C          27.7209   16.0636   -2.0236 C.ar    1  UNL1        0.0090
      8 C          28.7077   14.9686   -2.3020 C.ar    1  UNL1        0.0534
      9 C          28.2752   13.7409   -3.0473 C.ar    1  UNL1        0.0003
     10 C          26.8558   13.6081   -3.5143 C.ar    1  UNL1       -0.0216
     11 C          25.8691   14.7030   -3.2360 C.ar    1  UNL1        0.0003
     12 C          26.4233   12.3803   -4.2597 C.3     1  UNL1        0.0310
     13 C          30.1269   15.1015   -1.8350 C.2     1  UNL1        0.2490
     14 O          30.5666   14.4255   -0.5701 O.2     1  UNL1       -0.2699
     15 N          31.1064   15.9102   -2.6327 N.am    1  UNL1       -0.2761
     16 C          32.5257   16.0430   -2.1657 C.3     1  UNL1        0.0937
     17 C          33.5860   16.5186   -3.1141 C.3     1  UNL1        0.0215
     18 C          34.9561   15.9096   -3.0739 C.3     1  UNL1        0.0018
     19 C          30.6667   16.5861   -3.8975 C.3     1  UNL1        0.0937
     20 C          30.1835   18.0058   -3.8604 C.3     1  UNL1        0.0215
     21 C          31.1681   19.1352   -3.9297 C.3     1  UNL1        0.0018
     22 C          23.7493   19.1468    0.0609 C.3     1  UNL1        0.1873
     23 O          24.2505   19.0483    1.4713 O.3     1  UNL1       -0.3773
     24 H          25.2035   19.0732    1.6502 H       1  UNL1        0.2107
     25 C          22.2755   19.1081   -0.2157 C.3     1  UNL1        0.1585
     26 N          21.7451   18.2676   -1.3392 N.4     1  UNL1        0.2599
     27 C          20.2714   18.2290   -1.6158 C.3     1  UNL1        0.1245
     28 C          19.3280   19.0308   -0.7690 C.3     1  UNL1        0.1548
     29 N          19.8585   19.8713    0.3545 N.am    1  UNL1       -0.2651
     30 C          21.3322   19.9100    0.6311 C.2     1  UNL1        0.2781
     31 O          21.8626   20.7505    1.7546 O.2     1  UNL1       -0.2686
     32 H          22.3866   17.7224   -1.9150 H       1  UNL1        0.2039
     33 H          21.3844   17.6961   -2.1032 H       1  UNL1        0.2039
     34 C          18.9151   20.6732    1.2013 C.3     1  UNL1        0.1205
     35 C          18.7672   22.1476    0.9690 C.ar    1  UNL1       -0.0023
     36 C          18.4410   23.0585    2.1152 C.ar    1  UNL1       -0.0026
     37 C          18.2932   24.5330    1.8829 C.ar    1  UNL1       -0.0003
     38 C          18.4716   25.0967    0.5043 C.ar    1  UNL1       -0.0000
     39 C          18.7978   24.1858   -0.6420 C.ar    1  UNL1       -0.0003
     40 C          18.9456   22.7112   -0.4096 C.ar    1  UNL1       -0.0026
     41 C          24.7077   20.5160   -1.9282 C.3     1  UNL1        0.0487
     42 F          25.9083   24.0754    1.6620 F       1  UNL1       -0.2041
     43 C          26.0863   23.5080    0.2849 C.ar    1  UNL1        0.1421
     44 C          25.3080   22.2958   -0.1331 C.ar    1  UNL1        0.0256
     45 C          25.4860   21.7283   -1.5102 C.ar    1  UNL1       -0.0160
     46 C          26.4423   22.3731   -2.4692 C.ar    1  UNL1        0.0256
     47 C          27.2206   23.5853   -2.0512 C.ar    1  UNL1        0.1421
     48 F          28.1769   24.2301   -3.0102 F       1  UNL1       -0.2041
     49 C          27.0426   24.1527   -0.6741 C.ar    1  UNL1        0.0592
@<TRIPOS>UNITY_ATOM_ATTR
26 1
charge 1
@<TRIPOS>BOND
     1    42    43    1
     2    43    44   ar
     3    44    45   ar
     4    45    46   ar
     5    46    47   ar
     6    47    48    1
     7    47    49   ar
     8    45    41    1
     9     1    41    1
    10     1     2    1
    11     2     3   am
    12     3     4    2
    13     3     6    1
    14     6     7   ar
    15     7     8   ar
    16     8     9   ar
    17     9    10   ar
    18    10    11   ar
    19    10    12    1
    20     8    13    1
    21    13    14    2
    22    13    15   am
    23    15    16    1
    24    16    17    1
    25    17    18    1
    26    15    19    1
    27    19    20    1
    28    20    21    1
    29     1    22    1
    30    22    23    1
    31    22    25    1
    32    25    26    1
    33    26    27    1
    34    27    28    1
    35    28    29    1
    36    29    34    1
    37    34    35    1
    38    35    36   ar
    39    36    37   ar
    40    37    38   ar
    41    38    39   ar
    42    39    40   ar
    43    29    30   am
    44    30    31    2
    45    49    43   ar
    46    11     6   ar
    47    30    25    1
    48    40    35   ar
    49     2     5    1
    50    23    24    1
    51    26    32    1
    52    26    33    1
@<TRIPOS>MOLECULE
*****
 49 52 0 0 0
SMALL
GASTEIGER

@<TRIPOS>ATOM
      1 C          21.7277   16.1968    1.3760 C.3     1  UNL1        0.1092
      2 N          20.5630   15.3690    0.9195 N.am    1  UNL1       -0.2995
      3 C          20.4450   14.9707   -0.5218 C.2     1  UNL1        0.2459
      4 O          21.4918   15.4001   -1.5067 O.2     1  UNL1       -0.2701
      5 H          19.8760   15.0871    1.5659 H       1  UNL1        0.1498
      6 C          19.2804   14.1429   -0.9783 C.ar    1  UNL1        0.0532
      7 C          18.3358   14.6824   -2.0110 C.ar    1  UNL1        0.0090
      8 C          17.1711   13.8547   -2.4676 C.ar    1  UNL1        0.0534
      9 C          16.9510   12.4874   -1.8912 C.ar    1  UNL1        0.0003
     10 C          17.8957   11.9479   -0.8584 C.ar    1  UNL1       -0.0216
     11 C          19.0603   12.7756   -0.4019 C.ar    1  UNL1        0.0003
     12 C          17.6756   10.5806   -0.2821 C.3     1  UNL1        0.0310
     13 C          16.2266   14.3942   -3.5004 C.2     1  UNL1        0.2490
     14 O          14.8144   14.7305   -3.1224 O.2     1  UNL1       -0.2699
     15 N          16.6941   14.5974   -4.9111 N.am    1  UNL1       -0.2761
     16 C          15.7495   15.1369   -5.9439 C.3     1  UNL1        0.0937
     17 C          15.5659   16.6183   -6.0914 C.3     1  UNL1        0.0215
     18 C          16.1650   17.5524   -5.0822 C.3     1  UNL1        0.0018
     19 C          18.1062   14.2610   -5.2890 C.3     1  UNL1        0.0937
     20 C          18.7577   14.9544   -6.4487 C.3     1  UNL1        0.0215
     21 C          19.4237   16.2836   -6.2500 C.3     1  UNL1        0.0018
     22 C          21.6027   17.6896    1.4525 C.3     1  UNL1        0.1873
     23 O          22.1865   18.4324    2.6175 O.3     1  UNL1       -0.3773
     24 H          22.6450   17.9474    3.3214 H       1  UNL1        0.2107
     25 C          20.8937   18.4396    0.3639 C.3     1  UNL1        0.1585
     26 N          21.3579   18.3159   -1.0571 N.4     1  UNL1        0.2599
     27 C          20.6491   19.0659   -2.1457 C.3     1  UNL1        0.1245
     28 C          19.4760   19.9396   -1.8132 C.3     1  UNL1        0.1548
     29 N          19.0118   20.0633   -0.3922 N.am    1  UNL1       -0.2651
     30 C          19.7207   19.3133    0.6963 C.2     1  UNL1        0.2781
     31 O          19.2565   19.4370    2.1173 O.2     1  UNL1       -0.2686
     32 H          22.1556   17.7218   -1.2831 H       1  UNL1        0.2039
     33 H          21.6736   18.2318   -2.0234 H       1  UNL1        0.2039
     34 C          17.8387   20.9371   -0.0598 C.3     1  UNL1        0.1205
     35 C          18.0549   22.3752    0.3074 C.ar    1  UNL1       -0.0023
     36 C          18.6855   23.3143   -0.6778 C.ar    1  UNL1       -0.0026
     37 C          18.9017   24.7524   -0.3105 C.ar    1  UNL1       -0.0003
     38 C          18.4873   25.2516    1.0420 C.ar    1  UNL1       -0.0000
     39 C          17.8568   24.3125    2.0272 C.ar    1  UNL1       -0.0003
     40 C          17.6406   22.8743    1.6599 C.ar    1  UNL1       -0.0026
     41 C          23.0174   15.5317    1.7559 C.3     1  UNL1        0.0487
     42 F          23.4490   10.6864   -0.0708 F       1  UNL1       -0.2041
     43 C          23.2714   11.6289    1.0825 C.ar    1  UNL1        0.1421
     44 C          23.2332   13.1090    0.8426 C.ar    1  UNL1        0.0256
     45 C          23.0556   14.0515    1.9960 C.ar    1  UNL1       -0.0160
     46 C          22.9163   13.5138    3.3893 C.ar    1  UNL1        0.0256
     47 C          22.9546   12.0336    3.6292 C.ar    1  UNL1        0.1421
     48 F          22.8153   11.4958    5.0226 F       1  UNL1       -0.2041
     49 C          23.1321   11.0912    2.4759 C.ar    1  UNL1        0.0592
@<TRIPOS>UNITY_ATOM_ATTR
26 1
charge 1
@<TRIPOS>BOND
     1    42    43    1
     2    43    44   ar
     3    44    45   ar
     4    45    46   ar
     5    46    47   ar
     6    47    48    1
     7    47    49   ar
     8    45    41    1
     9     1    41    1
    10     1     2    1
    11     2     3   am
    12     3     4    2
    13     3     6    1
    14     6     7   ar
    15     7     8   ar
    16     8     9   ar
    17     9    10   ar
    18    10    11   ar
    19    10    12    1
    20     8    13    1
    21    13    14    2
    22    13    15   am
    23    15    16    1
    24    16    17    1
    25    17    18    1
    26    15    19    1
    27    19    20    1
    28    20    21    1
    29     1    22    1
    30    22    23    1
    31    22    25    1
    32    25    26    1
    33    26    27    1
    34    27    28    1
    35    28    29    1
    36    29    34    1
    37    34    35    1
    38    35    36   ar
    39    36    37   ar
    40    37    38   ar
    41    38    39   ar
    42    39    40   ar
    43    29    30   am
    44    30    31    2
    45    49    43   ar
    46    11     6   ar
    47    30    25    1
    48    40    35   ar
    49     2     5    1
    50    23    24    1
    51    26    32    1
    52    26    33    1
@<TRIPOS>MOLECULE
*****
 49 52 0 0 0
SMALL
GASTEIGER

@<TRIPOS>ATOM
      1 C          27.0604   27.0801    0.6567 C.3     1  UNL1        0.1092
      2 N          27.1139   28.1622   -0.3808 N.am    1  UNL1       -0.2995
      3 C          26.1388   28.1573   -1.5206 C.2     1  UNL1        0.2459
      4 O          25.1102   27.0703   -1.6230 O.2     1  UNL1       -0.2701
      5 H          27.7890   28.8756   -0.3136 H       1  UNL1        0.1498
      6 C          26.1924   29.2393   -2.5580 C.ar    1  UNL1        0.0532
      7 C          27.4370   30.0602   -2.7219 C.ar    1  UNL1        0.0090
      8 C          27.4906   31.1423   -3.7594 C.ar    1  UNL1        0.0534
      9 C          26.2995   31.4035   -4.6329 C.ar    1  UNL1        0.0003
     10 C          25.0548   30.5825   -4.4690 C.ar    1  UNL1       -0.0216
     11 C          25.0012   29.5005   -3.4315 C.ar    1  UNL1        0.0003
     12 C          23.8636   30.8436   -5.3425 C.3     1  UNL1        0.0310
     13 C          28.7352   31.9632   -3.9233 C.2     1  UNL1        0.2490
     14 O          29.7868   31.5429   -4.9070 O.2     1  UNL1       -0.2699
     15 N          28.9284   33.2045   -3.1036 N.am    1  UNL1       -0.2761
     16 C          30.1732   34.0254   -3.2675 C.3     1  UNL1        0.0937
     17 C          31.4798   33.5219   -2.7299 C.3     1  UNL1        0.0215
     18 C          31.4967   32.5596   -1.5794 C.3     1  UNL1        0.0018
     19 C          27.8769   33.6248   -2.1199 C.3     1  UNL1        0.0937
     20 C          28.1346   33.5001   -0.6474 C.3     1  UNL1        0.0215
     21 C          28.6248   34.6847    0.1312 C.3     1  UNL1        0.0018
     22 C          26.2052   27.2526    1.8769 C.3     1  UNL1        0.1873
     23 O          26.7290   26.8487    3.2231 O.3     1  UNL1       -0.3773
     24 H          27.6208   26.4760    3.3047 H       1  UNL1        0.2107
     25 C          24.8260   27.8290    1.7508 C.3     1  UNL1        0.1585
     26 N          23.6326   26.9205    1.7288 N.4     1  UNL1        0.2599
     27 C          22.2535   27.4968    1.6028 C.3     1  UNL1        0.1245
     28 C          22.0679   28.9816    1.4987 C.3     1  UNL1        0.1548
     29 N          23.2613   29.8901    1.5206 N.am    1  UNL1       -0.2651
     30 C          24.6403   29.3138    1.6467 C.2     1  UNL1        0.2781
     31 O          25.8337   30.2222    1.6687 O.2     1  UNL1       -0.2686
     32 H          23.7589   25.9108    1.7996 H       1  UNL1        0.2039
     33 H          22.8211   26.3027    1.7139 H       1  UNL1        0.2039
     34 C          23.0755   31.3749    1.4165 C.3     1  UNL1        0.1205
     35 C          22.8829   32.0143    0.0734 C.ar    1  UNL1       -0.0023
     36 C          24.0519   32.1843   -0.8509 C.ar    1  UNL1       -0.0026
     37 C          23.8593   32.8237   -2.1941 C.ar    1  UNL1       -0.0003
     38 C          22.4976   33.2932   -2.6129 C.ar    1  UNL1       -0.0000
     39 C          21.3285   33.1233   -1.6885 C.ar    1  UNL1       -0.0003
     40 C          21.5212   32.4838   -0.3454 C.ar    1  UNL1       -0.0026
     41 C          27.8620   25.8255    0.4739 C.3     1  UNL1        0.0487
     42 F          27.7895   22.8244   -3.7673 F       1  UNL1       -0.2041
     43 C          27.2487   23.1710   -2.4118 C.ar    1  UNL1        0.1421
     44 C          27.8257   24.3249   -1.6467 C.ar    1  UNL1        0.0256
     45 C          27.2849   24.6715   -0.2912 C.ar    1  UNL1       -0.0160
     46 C          26.1671   23.8642    0.2992 C.ar    1  UNL1        0.0256
     47 C          25.5901   22.7102   -0.4658 C.ar    1  UNL1        0.1421
     48 F          24.4722   21.9028    0.1246 F       1  UNL1       -0.2041
     49 C          26.1309   22.3636   -1.8213 C.ar    1  UNL1        0.0592
@<TRIPOS>UNITY_ATOM_ATTR
26 1
charge 1
@<TRIPOS>BOND
     1    42    43    1
     2    43    44   ar
     3    44    45   ar
     4    45    46   ar
     5    46    47   ar
     6    47    48    1
     7    47    49   ar
     8    45    41    1
     9     1    41    1
    10     1     2    1
    11     2     3   am
    12     3     4    2
    13     3     6    1
    14     6     7   ar
    15     7     8   ar
    16     8     9   ar
    17     9    10   ar
    18    10    11   ar
    19    10    12    1
    20     8    13    1
    21    13    14    2
    22    13    15   am
    23    15    16    1
    24    16    17    1
    25    17    18    1
    26    15    19    1
    27    19    20    1
    28    20    21    1
    29     1    22    1
    30    22    23    1
    31    22    25    1
    32    25    26    1
    33    26    27    1
    34    27    28    1
    35    28    29    1
    36    29    34    1
    37    34    35    1
    38    35    36   ar
    39    36    37   ar
    40    37    38   ar
    41    38    39   ar
    42    39    40   ar
    43    29    30   am
    44    30    31    2
    45    49    43   ar
    46    11     6   ar
    47    30    25    1
    48    40    35   ar
    49     2     5    1
    50    23    24    1
    51    26    32    1
    52    26    33    1
@<TRIPOS>MOLECULE
*****
 49 52 0 0 0
SMALL
GASTEIGER

@<TRIPOS>ATOM
      1 C          24.4181   29.0327    1.0120 C.3     1  UNL1        0.1092
      2 N          25.1655   29.4867   -0.2069 N.am    1  UNL1       -0.2995
      3 C          26.4607   30.2286   -0.0593 C.2     1  UNL1        0.2459
      4 O          27.0087   30.5165    1.3071 O.2     1  UNL1       -0.2701
      5 H          24.8058   29.2978   -1.1036 H       1  UNL1        0.1498
      6 C          27.2081   30.6827   -1.2780 C.ar    1  UNL1        0.0532
      7 C          26.9984   29.9854   -2.5894 C.ar    1  UNL1        0.0090
      8 C          27.7457   30.4394   -3.8082 C.ar    1  UNL1        0.0534
      9 C          28.7027   31.5908   -3.7155 C.ar    1  UNL1        0.0003
     10 C          28.9124   32.2880   -2.4040 C.ar    1  UNL1       -0.0216
     11 C          28.1651   31.8340   -1.1853 C.ar    1  UNL1        0.0003
     12 C          29.8694   33.4394   -2.3113 C.3     1  UNL1        0.0310
     13 C          27.5360   29.7422   -5.1196 C.2     1  UNL1        0.2490
     14 O          28.1188   28.3785   -5.3456 O.2     1  UNL1       -0.2699
     15 N          26.7436   30.4084   -6.2050 N.am    1  UNL1       -0.2761
     16 C          26.5339   29.7110   -7.5164 C.3     1  UNL1        0.0937
     17 C          25.3801   28.7681   -7.6884 C.3     1  UNL1        0.0215
     18 C          24.2977   29.0800   -8.6789 C.3     1  UNL1        0.0018
     19 C          26.1608   31.7719   -5.9790 C.3     1  UNL1        0.0937
     20 C          24.6962   31.9235   -5.6922 C.3     1  UNL1        0.0215
     21 C          23.9599   30.8423   -4.9583 C.3     1  UNL1        0.0018
     22 C          23.0179   29.5124    1.2552 C.3     1  UNL1        0.1873
     23 O          21.9872   28.5709    1.8041 O.3     1  UNL1       -0.3773
     24 H          22.2263   27.6518    2.0018 H       1  UNL1        0.2107
     25 C          22.6482   30.9336    0.9494 C.3     1  UNL1        0.1585
     26 N          22.3478   31.8875    2.0674 N.4     1  UNL1        0.2599
     27 C          21.9782   33.3087    1.7617 C.3     1  UNL1        0.1245
     28 C          21.9090   33.7761    0.3380 C.3     1  UNL1        0.1548
     29 N          22.2094   32.8222   -0.7799 N.am    1  UNL1       -0.2651
     30 C          22.5790   31.4009   -0.4742 C.2     1  UNL1        0.2781
     31 O          22.8795   30.4471   -1.5922 O.2     1  UNL1       -0.2686
     32 H          22.3949   31.5697    3.0354 H       1  UNL1        0.2039
     33 H          22.1435   32.5362    2.8276 H       1  UNL1        0.2039
     34 C          22.1402   33.2895   -2.2036 C.3     1  UNL1        0.1205
     35 C          23.3402   33.9209   -2.8449 C.ar    1  UNL1       -0.0023
     36 C          23.1645   34.8739   -3.9899 C.ar    1  UNL1       -0.0026
     37 C          24.3645   35.5052   -4.6312 C.ar    1  UNL1       -0.0003
     38 C          25.7404   35.1835   -4.1275 C.ar    1  UNL1       -0.0000
     39 C          25.9161   34.2305   -2.9826 C.ar    1  UNL1       -0.0003
     40 C          24.7160   33.5992   -2.3413 C.ar    1  UNL1       -0.0026
     41 C          25.0711   28.0989    1.9875 C.3     1  UNL1        0.0487
     42 F          24.2160   23.1310    0.7271 F       1  UNL1       -0.2041
     43 C          25.1594   24.2853    0.8925 C.ar    1  UNL1        0.1421
     44 C          24.6436   25.6149    1.3573 C.ar    1  UNL1        0.0256
     45 C          25.5870   26.7693    1.5227 C.ar    1  UNL1       -0.0160
     46 C          27.0463   26.5940    1.2233 C.ar    1  UNL1        0.0256
     47 C          27.5622   25.2645    0.7585 C.ar    1  UNL1        0.1421
     48 F          29.0216   25.0892    0.4591 F       1  UNL1       -0.2041
     49 C          26.6187   24.1101    0.5931 C.ar    1  UNL1        0.0592
@<TRIPOS>UNITY_ATOM_ATTR
26 1
charge 1
@<TRIPOS>BOND
     1    42    43    1
     2    43    44   ar
     3    44    45   ar
     4    45    46   ar
     5    46    47   ar
     6    47    48    1
     7    47    49   ar
     8    45    41    1
     9     1    41    1
    10     1     2    1
    11     2     3   am
    12     3     4    2
    13     3     6    1
    14     6     7   ar
    15     7     8   ar
    16     8     9   ar
    17     9    10   ar
    18    10    11   ar
    19    10    12    1
    20     8    13    1
    21    13    14    2
    22    13    15   am
    23    15    16    1
    24    16    17    1
    25    17    18    1
    26    15    19    1
    27    19    20    1
    28    20    21    1
    29     1    22    1
    30    22    23    1
    31    22    25    1
    32    25    26    1
    33    26    27    1
    34    27    28    1
    35    28    29    1
    36    29    34    1
    37    34    35    1
    38    35    36   ar
    39    36    37   ar
    40    37    38   ar
    41    38    39   ar
    42    39    40   ar
    43    29    30   am
    44    30    31    2
    45    49    43   ar
    46    11     6   ar
    47    30    25    1
    48    40    35   ar
    49     2     5    1
    50    23    24    1
    51    26    32    1
    52    26    33    1
@<TRIPOS>MOLECULE
*****
 49 52 0 0 0
SMALL
GASTEIGER

@<TRIPOS>ATOM
      1 C          21.0359   17.9346    0.8941 C.3     1  UNL1        0.1092
      2 N          21.3419   16.5060    1.2345 N.am    1  UNL1       -0.2995
      3 C          22.7666   16.0511    1.3494 C.2     1  UNL1        0.2459
      4 O          23.8854   17.0246    1.1240 O.2     1  UNL1       -0.2701
      5 H          20.6077   15.8671    1.3824 H       1  UNL1        0.1498
      6 C          23.0727   14.6226    1.6897 C.ar    1  UNL1        0.0532
      7 C          22.2292   13.5194    1.1230 C.ar    1  UNL1        0.0090
      8 C          22.5352   12.0909    1.4633 C.ar    1  UNL1        0.0534
      9 C          23.6847   11.7657    2.3704 C.ar    1  UNL1        0.0003
     10 C          24.5283   12.8690    2.9371 C.ar    1  UNL1       -0.0216
     11 C          24.2222   14.2975    2.5968 C.ar    1  UNL1        0.0003
     12 C          25.6778   12.5438    3.8442 C.3     1  UNL1        0.0310
     13 C          21.6916   10.9876    0.8966 C.2     1  UNL1        0.2490
     14 O          21.8736   10.5616   -0.5302 O.2     1  UNL1       -0.2699
     15 N          20.6661   10.3103    1.7565 N.am    1  UNL1       -0.2761
     16 C          19.8225    9.2070    1.1896 C.3     1  UNL1        0.0937
     17 C          18.4249    9.4938    0.7266 C.3     1  UNL1        0.0215
     18 C          18.1382   10.7315   -0.0707 C.3     1  UNL1        0.0018
     19 C          20.4841   10.7362    3.1831 C.3     1  UNL1        0.0937
     20 C          21.1474    9.9660    4.2863 C.3     1  UNL1        0.0215
     21 C          22.0172   10.6775    5.2798 C.3     1  UNL1        0.0018
     22 C          21.1135   18.9916    1.9555 C.3     1  UNL1        0.1873
     23 O          22.2348   18.9733    2.9517 O.3     1  UNL1       -0.3773
     24 H          22.9097   18.2778    2.9096 H       1  UNL1        0.2107
     25 C          20.0699   20.0671    2.0207 C.3     1  UNL1        0.1585
     26 N          18.7873   19.8237    2.7595 N.4     1  UNL1        0.2599
     27 C          17.7436   20.8990    2.8247 C.3     1  UNL1        0.1245
     28 C          17.9825   22.2178    2.1512 C.3     1  UNL1        0.1548
     29 N          19.2651   22.4612    1.4125 N.am    1  UNL1       -0.2651
     30 C          20.3088   21.3859    1.3472 C.2     1  UNL1        0.2781
     31 O          21.5914   21.6293    0.6085 O.2     1  UNL1       -0.2686
     32 H          18.6248   18.9269    3.2174 H       1  UNL1        0.2039
     33 H          17.9151   19.6581    3.2618 H       1  UNL1        0.2039
     34 C          19.5040   23.7801    0.7389 C.3     1  UNL1        0.1205
     35 C          20.1988   24.8849    1.4783 C.ar    1  UNL1       -0.0023
     36 C          21.6264   24.7181    1.9076 C.ar    1  UNL1       -0.0026
     37 C          22.3211   25.8229    2.6470 C.ar    1  UNL1       -0.0003
     38 C          21.5884   27.0945    2.9572 C.ar    1  UNL1       -0.0000
     39 C          20.1608   27.2612    2.5279 C.ar    1  UNL1       -0.0003
     40 C          19.4660   26.1564    1.7885 C.ar    1  UNL1       -0.0026
     41 C          20.6524   18.3060   -0.5076 C.3     1  UNL1        0.0487
     42 F          17.7956   14.0188   -1.1852 F       1  UNL1       -0.2041
     43 C          18.0962   15.4474   -1.5298 C.ar    1  UNL1        0.1421
     44 C          19.2239   16.1624   -0.8465 C.ar    1  UNL1        0.0256
     45 C          19.5245   17.5910   -1.1910 C.ar    1  UNL1       -0.0160
     46 C          18.6974   18.3046   -2.2188 C.ar    1  UNL1        0.0256
     47 C          17.5696   17.5896   -2.9021 C.ar    1  UNL1        0.1421
     48 F          16.7424   18.3033   -3.9300 F       1  UNL1       -0.2041
     49 C          17.2690   16.1610   -2.5576 C.ar    1  UNL1        0.0592
@<TRIPOS>UNITY_ATOM_ATTR
26 1
charge 1
@<TRIPOS>BOND
     1    42    43    1
     2    43    44   ar
     3    44    45   ar
     4    45    46   ar
     5    46    47   ar
     6    47    48    1
     7    47    49   ar
     8    45    41    1
     9     1    41    1
    10     1     2    1
    11     2     3   am
    12     3     4    2
    13     3     6    1
    14     6     7   ar
    15     7     8   ar
    16     8     9   ar
    17     9    10   ar
    18    10    11   ar
    19    10    12    1
    20     8    13    1
    21    13    14    2
    22    13    15   am
    23    15    16    1
    24    16    17    1
    25    17    18    1
    26    15    19    1
    27    19    20    1
    28    20    21    1
    29     1    22    1
    30    22    23    1
    31    22    25    1
    32    25    26    1
    33    26    27    1
    34    27    28    1
    35    28    29    1
    36    29    34    1
    37    34    35    1
    38    35    36   ar
    39    36    37   ar
    40    37    38   ar
    41    38    39   ar
    42    39    40   ar
    43    29    30   am
    44    30    31    2
    45    49    43   ar
    46    11     6   ar
    47    30    25    1
    48    40    35   ar
    49     2     5    1
    50    23    24    1
    51    26    32    1
    52    26    33    1
@<TRIPOS>MOLECULE
*****
 48 51 0 0 0
SMALL
GASTEIGER

@<TRIPOS>ATOM
      1 C          23.8819   25.2617    1.5114 C.3     1  UNL1        0.1089
      2 C          24.3039   27.8087    1.2212 C.2     1  UNL1        0.2460
      3 O          24.8184   27.8838    2.6282 O.2     1  UNL1       -0.2701
      4 N          23.8356   26.4977    0.6628 N.am    1  UNL1       -0.2995
      5 H          23.4980   26.4484   -0.2607 H       1  UNL1        0.1498
      6 C          25.4009   30.6666   -1.3044 C.ar    1  UNL1        0.0698
      7 C          25.4471   29.4306   -0.4559 C.ar    1  UNL1        0.0207
      8 C          24.2577   29.0447    0.3727 C.ar    1  UNL1        0.0559
      9 C          23.0221   29.8949    0.3526 C.ar    1  UNL1        0.0189
     10 C          22.9759   31.1310   -0.4960 C.ar    1  UNL1        0.0461
     11 C          24.1653   31.5168   -1.3245 C.ar    1  UNL1        0.0304
     12 S          27.7119   31.8348   -1.5165 S.O2    1  UNL1        0.0569
     13 O          28.5175   32.5721   -0.4881 O.2     1  UNL1       -0.1543
     14 O          26.8022   31.7050   -0.3308 O.2     1  UNL1       -0.1543
     15 N          26.5904   31.0525   -2.1330 N.pl3   1  UNL1       -0.1943
     16 C          26.6582   30.6560   -3.5780 C.3     1  UNL1        0.1155
     17 C          27.8476   31.0418   -4.4066 C.3     1  UNL1        0.0252
     18 C          28.9691   31.8241   -3.7901 C.3     1  UNL1        0.0292
     19 C          28.9012   32.2206   -2.3450 C.3     1  UNL1        0.1727
     20 N          21.7403   31.9812   -0.5161 N.pl3   1  UNL1       -0.3326
     21 H          21.1752   32.0094   -1.3218 H       1  UNL1        0.1468
     22 C          21.3656   32.7884    0.6914 C.3     1  UNL1        0.0871
     23 C          22.4320   33.2843    1.6224 C.3     1  UNL1        0.0229
     24 C          22.6426   24.7836    2.2083 C.3     1  UNL1        0.1839
     25 O          22.1007   23.4149    1.9202 O.3     1  UNL1       -0.3775
     26 H          21.2993   23.1057    2.3708 H       1  UNL1        0.2106
     27 C          21.9452   25.6742    3.1934 C.3     1  UNL1        0.1339
     28 N          20.4549   25.6003    3.3471 N.4     1  UNL1        0.2597
     29 H          20.0470   25.3474    4.2471 H       1  UNL1        0.2040
     30 H          19.4415   25.5501    3.4516 H       1  UNL1        0.2040
     31 C          19.5646   25.8985    2.1773 C.3     1  UNL1        0.1298
     32 C          18.8080   24.7892    1.5086 C.ar    1  UNL1        0.0325
     33 C          18.9889   24.5362    0.0412 C.ar    1  UNL1        0.0052
     34 C          18.2324   23.4269   -0.6274 C.ar    1  UNL1        0.0713
     35 C          17.2949   22.5706    0.1713 C.ar    1  UNL1        0.0038
     36 C          17.1140   22.8236    1.6387 C.ar    1  UNL1       -0.0002
     37 C          17.8706   23.9329    2.3074 C.ar    1  UNL1        0.0014
     38 C          18.4133   23.1739   -2.0948 C.3     1  UNL1        0.4186
     39 F          18.5941   22.9209   -3.5623 F       1  UNL1       -0.1659
     40 F          19.2866   24.3892   -2.1967 F       1  UNL1       -0.1659
     41 F          17.5399   21.9586   -1.9929 F       1  UNL1       -0.1659
     42 C          25.1673   24.5037    1.6630 C.3     1  UNL1        0.0486
     43 C          26.1316   24.4254    0.5166 C.ar    1  UNL1       -0.0204
     44 C          27.3539   25.2947    0.5041 C.ar    1  UNL1       -0.0042
     45 C          28.3182   25.2165   -0.6422 C.ar    1  UNL1       -0.0003
     46 C          28.0601   24.2689   -1.7760 C.ar    1  UNL1       -0.0000
     47 C          26.8377   23.3995   -1.7634 C.ar    1  UNL1       -0.0003
     48 C          25.8735   23.4778   -0.6171 C.ar    1  UNL1       -0.0042
@<TRIPOS>UNITY_ATOM_ATTR
28 1
charge 1
@<TRIPOS>BOND
     1    12    13    2
     2    12    14    2
     3    12    15    1
     4    15    16    1
     5    16    17    1
     6    17    18    1
     7    18    19    1
     8    15     6    1
     9     6     7   ar
    10     7     8   ar
    11     8     9   ar
    12     9    10   ar
    13    10    20    1
    14    20    22    1
    15    22    23    1
    16    10    11   ar
    17     8     2    1
    18     2     3    2
    19     2     4   am
    20     4     1    1
    21     1    24    1
    22    24    25    1
    23    24    27    1
    24    27    28    1
    25    28    31    1
    26    31    32    1
    27    32    33   ar
    28    33    34   ar
    29    34    35   ar
    30    35    36   ar
    31    36    37   ar
    32    34    38    1
    33    38    39    1
    34    38    40    1
    35    38    41    1
    36     1    42    1
    37    42    43    1
    38    43    44   ar
    39    44    45   ar
    40    45    46   ar
    41    46    47   ar
    42    47    48   ar
    43    19    12    1
    44    11     6   ar
    45    37    32   ar
    46    48    43   ar
    47    20    21    1
    48     4     5    1
    49    25    26    1
    50    28    29    1
    51    28    30    1
@<TRIPOS>MOLECULE
*****
 48 51 0 0 0
SMALL
GASTEIGER

@<TRIPOS>ATOM
      1 C          24.0906   18.5964    0.2012 C.3     1  UNL1        0.1089
      2 C          24.4013   21.1584   -0.0980 C.2     1  UNL1        0.2460
      3 O          22.9936   21.3836    0.3685 O.2     1  UNL1       -0.2701
      4 N          24.9498   19.7647   -0.1816 N.am    1  UNL1       -0.2995
      5 H          25.8737   19.6169   -0.4878 H       1  UNL1        0.1498
      6 C          26.0171   24.7831   -0.1017 C.ar    1  UNL1        0.0698
      7 C          25.1579   23.6148    0.2812 C.ar    1  UNL1        0.0207
      8 C          25.2605   22.3267   -0.4808 C.ar    1  UNL1        0.0559
      9 C          26.2224   22.2072   -1.6256 C.ar    1  UNL1        0.0189
     10 C          27.0816   23.3756   -2.0084 C.ar    1  UNL1        0.0461
     11 C          26.9790   24.6636   -1.2465 C.ar    1  UNL1        0.0304
     12 S          24.7780   27.0127    0.3922 S.O2    1  UNL1        0.0569
     13 O          23.5261   27.5747   -0.2136 O.2     1  UNL1       -0.1543
     14 O          24.4458   25.9198   -0.5802 O.2     1  UNL1       -0.1543
     15 N          25.9145   26.0712    0.6603 N.pl3   1  UNL1       -0.1943
     16 C          26.9484   26.4176    1.6903 C.3     1  UNL1        0.1155
     17 C          26.8459   27.7056    2.4523 C.3     1  UNL1        0.0252
     18 C          25.7094   28.6471    2.1842 C.3     1  UNL1        0.0292
     19 C          24.6754   28.3006    1.1542 C.3     1  UNL1        0.1727
     20 N          28.0435   23.2561   -3.1532 N.pl3   1  UNL1       -0.3326
     21 H          27.7592   22.8265   -3.9922 H       1  UNL1        0.1468
     22 C          29.4386   23.7910   -3.0196 C.3     1  UNL1        0.0871
     23 C          29.8120   25.0851   -3.6797 C.3     1  UNL1        0.0229
     24 C          23.7790   18.3357    1.6452 C.3     1  UNL1        0.1839
     25 O          24.8906   18.0640    2.6151 O.3     1  UNL1       -0.3775
     26 H          24.6892   17.8955    3.5488 H       1  UNL1        0.2106
     27 C          22.3560   18.3467    2.1193 C.3     1  UNL1        0.1339
     28 N          21.4978   19.5549    1.8880 N.4     1  UNL1        0.2597
     29 H          21.8810   20.4886    2.0360 H       1  UNL1        0.2040
     30 H          20.9142   20.3766    1.7307 H       1  UNL1        0.2040
     31 C          20.0760   19.3902    1.4391 C.3     1  UNL1        0.1298
     32 C          19.2211   20.5988    1.1971 C.ar    1  UNL1        0.0325
     33 C          19.3537   21.3669   -0.0845 C.ar    1  UNL1        0.0052
     34 C          18.4989   22.5754   -0.3265 C.ar    1  UNL1        0.0713
     35 C          17.5114   23.0159    0.7131 C.ar    1  UNL1        0.0038
     36 C          17.3787   22.2479    1.9947 C.ar    1  UNL1       -0.0002
     37 C          18.2336   21.0393    2.2367 C.ar    1  UNL1        0.0014
     38 C          18.6315   23.3434   -1.6081 C.3     1  UNL1        0.4186
     39 F          18.7642   24.1115   -2.8897 F       1  UNL1       -0.1659
     40 F          18.8621   24.6041   -0.8287 F       1  UNL1       -0.1659
     41 F          18.4009   22.0828   -2.3874 F       1  UNL1       -0.1659
     42 C          23.5428   17.6886   -0.8599 C.3     1  UNL1        0.0486
     43 C          22.1091   17.8101   -1.2840 C.ar    1  UNL1       -0.0204
     44 C          21.6713   18.9736   -2.1233 C.ar    1  UNL1       -0.0042
     45 C          20.2376   19.0951   -2.5474 C.ar    1  UNL1       -0.0003
     46 C          19.2418   18.0531   -2.1321 C.ar    1  UNL1       -0.0000
     47 C          19.6796   16.8896   -1.2927 C.ar    1  UNL1       -0.0003
     48 C          21.1133   16.7681   -0.8686 C.ar    1  UNL1       -0.0042
@<TRIPOS>UNITY_ATOM_ATTR
28 1
charge 1
@<TRIPOS>BOND
     1    12    13    2
     2    12    14    2
     3    12    15    1
     4    15    16    1
     5    16    17    1
     6    17    18    1
     7    18    19    1
     8    15     6    1
     9     6     7   ar
    10     7     8   ar
    11     8     9   ar
    12     9    10   ar
    13    10    20    1
    14    20    22    1
    15    22    23    1
    16    10    11   ar
    17     8     2    1
    18     2     3    2
    19     2     4   am
    20     4     1    1
    21     1    24    1
    22    24    25    1
    23    24    27    1
    24    27    28    1
    25    28    31    1
    26    31    32    1
    27    32    33   ar
    28    33    34   ar
    29    34    35   ar
    30    35    36   ar
    31    36    37   ar
    32    34    38    1
    33    38    39    1
    34    38    40    1
    35    38    41    1
    36     1    42    1
    37    42    43    1
    38    43    44   ar
    39    44    45   ar
    40    45    46   ar
    41    46    47   ar
    42    47    48   ar
    43    19    12    1
    44    11     6   ar
    45    37    32   ar
    46    48    43   ar
    47    20    21    1
    48     4     5    1
    49    25    26    1
    50    28    29    1
    51    28    30    1
@<TRIPOS>MOLECULE
*****
 48 51 0 0 0
SMALL
GASTEIGER

@<TRIPOS>ATOM
      1 C          22.3571   19.1687    0.1871 C.3     1  UNL1        0.1089
      2 C          24.4526   20.7000    0.0683 C.2     1  UNL1        0.2460
      3 O          25.2408   19.6811    0.8368 O.2     1  UNL1       -0.2701
      4 N          23.0108   20.4438   -0.2565 N.am    1  UNL1       -0.2995
      5 H          22.4935   21.1125   -0.7609 H       1  UNL1        0.1498
      6 C          25.3524   24.5557   -0.2028 C.ar    1  UNL1        0.0698
      7 C          24.6988   23.2806    0.2408 C.ar    1  UNL1        0.0207
      8 C          25.1062   21.9751   -0.3753 C.ar    1  UNL1        0.0559
      9 C          26.1674   21.9447   -1.4351 C.ar    1  UNL1        0.0189
     10 C          26.8210   23.2199   -1.8787 C.ar    1  UNL1        0.0461
     11 C          26.4135   24.5253   -1.2626 C.ar    1  UNL1        0.0304
     12 S          25.5963   26.3279    1.6813 S.O2    1  UNL1        0.0569
     13 O          26.4981   26.3429    2.8800 O.2     1  UNL1       -0.1543
     14 O          26.3170   25.0276    1.4815 O.2     1  UNL1       -0.1543
     15 N          24.9449   25.8613    0.4133 N.pl3   1  UNL1       -0.1943
     16 C          23.8860   26.7002   -0.2387 C.3     1  UNL1        0.1155
     17 C          23.4786   28.0057    0.3774 C.3     1  UNL1        0.0252
     18 C          24.1300   28.4723    1.6454 C.3     1  UNL1        0.0292
     19 C          25.1889   27.6334    2.2974 C.3     1  UNL1        0.1727
     20 N          27.8821   23.1895   -2.9385 N.pl3   1  UNL1       -0.3326
     21 H          27.9199   22.4401   -3.5759 H       1  UNL1        0.1468
     22 C          28.8857   24.3009   -3.0271 C.3     1  UNL1        0.0871
     23 C          29.8498   24.3511   -4.1751 C.3     1  UNL1        0.0229
     24 C          22.0188   18.9632    1.6340 C.3     1  UNL1        0.1839
     25 O          23.1104   18.9315    2.6623 O.3     1  UNL1       -0.3775
     26 H          22.8916   18.7987    3.5979 H       1  UNL1        0.2106
     27 C          20.5889   18.7895    2.0525 C.3     1  UNL1        0.1339
     28 N          19.6787   19.9795    2.1247 N.4     1  UNL1        0.2597
     29 H          19.7433   20.6239    2.9127 H       1  UNL1        0.2040
     30 H          19.0598   20.7888    2.1738 H       1  UNL1        0.2040
     31 C          18.6735   20.2220    1.0380 C.3     1  UNL1        0.1298
     32 C          18.6585   21.5329    0.3091 C.ar    1  UNL1        0.0325
     33 C          18.8506   22.8139    1.0656 C.ar    1  UNL1        0.0052
     34 C          18.8356   24.1248    0.3367 C.ar    1  UNL1        0.0713
     35 C          18.6286   24.1548   -1.1487 C.ar    1  UNL1        0.0038
     36 C          18.4365   22.8738   -1.9051 C.ar    1  UNL1       -0.0002
     37 C          18.4515   21.5628   -1.1762 C.ar    1  UNL1        0.0014
     38 C          19.0277   25.4058    1.0931 C.3     1  UNL1        0.4186
     39 F          19.2198   26.6868    1.8496 F       1  UNL1       -0.1659
     40 F          17.6468   25.2756    1.6641 F       1  UNL1       -0.1659
     41 F          20.4086   25.5359    0.5221 F       1  UNL1       -0.1659
     42 C          22.0418   18.0990   -0.8161 C.3     1  UNL1        0.0486
     43 C          20.8178   18.2142   -1.6756 C.ar    1  UNL1       -0.0204
     44 C          19.5526   17.5141   -1.2765 C.ar    1  UNL1       -0.0042
     45 C          18.3286   17.6293   -2.1359 C.ar    1  UNL1       -0.0003
     46 C          18.3699   18.4444   -3.3943 C.ar    1  UNL1       -0.0000
     47 C          19.6351   19.1444   -3.7934 C.ar    1  UNL1       -0.0003
     48 C          20.8590   19.0293   -2.9340 C.ar    1  UNL1       -0.0042
@<TRIPOS>UNITY_ATOM_ATTR
28 1
charge 1
@<TRIPOS>BOND
     1    12    13    2
     2    12    14    2
     3    12    15    1
     4    15    16    1
     5    16    17    1
     6    17    18    1
     7    18    19    1
     8    15     6    1
     9     6     7   ar
    10     7     8   ar
    11     8     9   ar
    12     9    10   ar
    13    10    20    1
    14    20    22    1
    15    22    23    1
    16    10    11   ar
    17     8     2    1
    18     2     3    2
    19     2     4   am
    20     4     1    1
    21     1    24    1
    22    24    25    1
    23    24    27    1
    24    27    28    1
    25    28    31    1
    26    31    32    1
    27    32    33   ar
    28    33    34   ar
    29    34    35   ar
    30    35    36   ar
    31    36    37   ar
    32    34    38    1
    33    38    39    1
    34    38    40    1
    35    38    41    1
    36     1    42    1
    37    42    43    1
    38    43    44   ar
    39    44    45   ar
    40    45    46   ar
    41    46    47   ar
    42    47    48   ar
    43    19    12    1
    44    11     6   ar
    45    37    32   ar
    46    48    43   ar
    47    20    21    1
    48     4     5    1
    49    25    26    1
    50    28    29    1
    51    28    30    1
@<TRIPOS>MOLECULE
*****
 48 51 0 0 0
SMALL
GASTEIGER

@<TRIPOS>ATOM
      1 C          21.9002   19.9534    0.7925 C.3     1  UNL1        0.1089
      2 C          24.0629   20.8740   -0.3143 C.2     1  UNL1        0.2460
      3 O          24.3421   19.5197   -0.8955 O.2     1  UNL1       -0.2701
      4 N          22.8420   21.0909    0.5297 N.am    1  UNL1       -0.2995
      5 H          22.6588   21.9798    0.9111 H       1  UNL1        0.1498
      6 C          25.8758   24.3904   -0.0008 C.ar    1  UNL1        0.0698
      7 C          24.9340   23.2530    0.2620 C.ar    1  UNL1        0.0207
      8 C          25.0047   22.0115   -0.5771 C.ar    1  UNL1        0.0559
      9 C          26.0172   21.9077   -1.6789 C.ar    1  UNL1        0.0189
     10 C          26.9590   23.0453   -1.9417 C.ar    1  UNL1        0.0461
     11 C          26.8883   24.2866   -1.1026 C.ar    1  UNL1        0.0304
     12 S          24.7568   26.6675    0.5585 S.O2    1  UNL1        0.0569
     13 O          23.5926   27.3551   -0.0911 O.2     1  UNL1       -0.1543
     14 O          24.4231   25.6649   -0.5062 O.2     1  UNL1       -0.1543
     15 N          25.8051   25.6319    0.8383 N.pl3   1  UNL1       -0.1943
     16 C          26.7827   25.8375    1.9572 C.3     1  UNL1        0.1155
     17 C          26.7121   27.0788    2.7962 C.3     1  UNL1        0.0252
     18 C          25.6638   28.1145    2.5164 C.3     1  UNL1        0.0292
     19 C          24.6861   27.9089    1.3975 C.3     1  UNL1        0.1727
     20 N          27.9716   22.9414   -3.0435 N.pl3   1  UNL1       -0.3326
     21 H          27.9197   22.2022   -3.6916 H       1  UNL1        0.1468
     22 C          29.0631   23.9640   -3.1578 C.3     1  UNL1        0.0871
     23 C          30.2783   23.8647   -2.2841 C.3     1  UNL1        0.0229
     24 C          22.1858   18.9839    1.9009 C.3     1  UNL1        0.1839
     25 O          21.8765   19.3558    3.3208 O.3     1  UNL1       -0.3775
     26 H          22.0612   18.7289    4.0376 H       1  UNL1        0.2106
     27 C          22.7807   17.6426    1.5895 C.3     1  UNL1        0.1339
     28 N          22.0905   16.3917    2.0465 N.4     1  UNL1        0.2597
     29 H          21.4097   16.4329    2.8048 H       1  UNL1        0.2040
     30 H          21.6212   15.5411    2.3572 H       1  UNL1        0.2040
     31 C          22.4017   15.0802    1.3882 C.3     1  UNL1        0.1298
     32 C          22.9543   13.9462    2.1997 C.ar    1  UNL1        0.0325
     33 C          22.0759   12.7855    2.5621 C.ar    1  UNL1        0.0052
     34 C          22.6285   11.6514    3.3736 C.ar    1  UNL1        0.0713
     35 C          24.0594   11.6781    3.8228 C.ar    1  UNL1        0.0038
     36 C          24.9378   12.8387    3.4604 C.ar    1  UNL1       -0.0002
     37 C          24.3852   13.9729    2.6489 C.ar    1  UNL1        0.0014
     38 C          21.7502   10.4908    3.7360 C.3     1  UNL1        0.4186
     39 F          20.8717    9.3301    4.0984 F       1  UNL1       -0.1659
     40 F          22.9588    9.6085    3.8395 F       1  UNL1       -0.1659
     41 F          20.5416   11.3731    3.6325 F       1  UNL1       -0.1659
     42 C          20.6727   19.7853   -0.0532 C.3     1  UNL1        0.0486
     43 C          19.4815   20.6691    0.1699 C.ar    1  UNL1       -0.0204
     44 C          18.8168   20.7068    1.5141 C.ar    1  UNL1       -0.0042
     45 C          17.6255   21.5906    1.7372 C.ar    1  UNL1       -0.0003
     46 C          17.0990   22.4368    0.6161 C.ar    1  UNL1       -0.0000
     47 C          17.7637   22.3991   -0.7280 C.ar    1  UNL1       -0.0003
     48 C          18.9549   21.5153   -0.9511 C.ar    1  UNL1       -0.0042
@<TRIPOS>UNITY_ATOM_ATTR
28 1
charge 1
@<TRIPOS>BOND
     1    12    13    2
     2    12    14    2
     3    12    15    1
     4    15    16    1
     5    16    17    1
     6    17    18    1
     7    18    19    1
     8    15     6    1
     9     6     7   ar
    10     7     8   ar
    11     8     9   ar
    12     9    10   ar
    13    10    20    1
    14    20    22    1
    15    22    23    1
    16    10    11   ar
    17     8     2    1
    18     2     3    2
    19     2     4   am
    20     4     1    1
    21     1    24    1
    22    24    25    1
    23    24    27    1
    24    27    28    1
    25    28    31    1
    26    31    32    1
    27    32    33   ar
    28    33    34   ar
    29    34    35   ar
    30    35    36   ar
    31    36    37   ar
    32    34    38    1
    33    38    39    1
    34    38    40    1
    35    38    41    1
    36     1    42    1
    37    42    43    1
    38    43    44   ar
    39    44    45   ar
    40    45    46   ar
    41    46    47   ar
    42    47    48   ar
    43    19    12    1
    44    11     6   ar
    45    37    32   ar
    46    48    43   ar
    47    20    21    1
    48     4     5    1
    49    25    26    1
    50    28    29    1
    51    28    30    1
@<TRIPOS>MOLECULE
*****
 48 51 0 0 0
SMALL
GASTEIGER

@<TRIPOS>ATOM
      1 C          24.3870   18.8141    0.1064 C.3     1  UNL1        0.1089
      2 C          24.5980   21.3950   -0.1049 C.2     1  UNL1        0.2460
      3 O          23.1859   21.5499    0.3765 O.2     1  UNL1       -0.2701
      4 N          25.1986   20.0271   -0.2400 N.am    1  UNL1       -0.2995
      5 H          26.1255   19.9255   -0.5559 H       1  UNL1        0.1498
      6 C          26.0295   25.0957   -0.0305 C.ar    1  UNL1        0.0698
      7 C          25.2180   23.8827    0.3159 C.ar    1  UNL1        0.0207
      8 C          25.4096   22.6080   -0.4513 C.ar    1  UNL1        0.0559
      9 C          26.4127   22.5463   -1.5647 C.ar    1  UNL1        0.0189
     10 C          27.2243   23.7594   -1.9111 C.ar    1  UNL1        0.0461
     11 C          27.0327   25.0340   -1.1440 C.ar    1  UNL1        0.0304
     12 S          24.6859   27.2747    0.4127 S.O2    1  UNL1        0.0569
     13 O          23.4515   27.7997   -0.2586 O.2     1  UNL1       -0.1543
     14 O          24.4487   26.1824   -0.5876 O.2     1  UNL1       -0.1543
     15 N          25.8379   26.3704    0.7366 N.pl3   1  UNL1       -0.1943
     16 C          26.7984   26.7407    1.8277 C.3     1  UNL1        0.1155
     17 C          26.6068   28.0154    2.5948 C.3     1  UNL1        0.0252
     18 C          25.4548   28.9197    2.2709 C.3     1  UNL1        0.0292
     19 C          24.4943   28.5494    1.1798 C.3     1  UNL1        0.1727
     20 N          28.2275   23.6977   -3.0245 N.pl3   1  UNL1       -0.3326
     21 H          28.2355   22.9276   -3.6378 H       1  UNL1        0.1468
     22 C          29.2185   24.8095   -3.2036 C.3     1  UNL1        0.0871
     23 C          30.4920   24.8138   -2.4111 C.3     1  UNL1        0.0229
     24 C          23.9458   18.5860    1.5218 C.3     1  UNL1        0.1839
     25 O          24.9668   18.4209    2.6083 O.3     1  UNL1       -0.3775
     26 H          24.6815   18.2734    3.5236 H       1  UNL1        0.2106
     27 C          22.4837   18.5230    1.8508 C.3     1  UNL1        0.1339
     28 N          21.4920   19.2643    1.0042 N.4     1  UNL1        0.2597
     29 H          21.8092   19.7920    0.1910 H       1  UNL1        0.2040
     30 H          20.8175   19.7685    0.4285 H       1  UNL1        0.2040
     31 C          20.0335   19.2297    1.3535 C.3     1  UNL1        0.1298
     32 C          19.1848   20.4499    1.1516 C.ar    1  UNL1        0.0325
     33 C          19.2475   21.2010   -0.1453 C.ar    1  UNL1        0.0052
     34 C          18.3988   22.4211   -0.3472 C.ar    1  UNL1        0.0713
     35 C          17.4874   22.8903    0.7479 C.ar    1  UNL1        0.0038
     36 C          17.4246   22.1393    2.0448 C.ar    1  UNL1       -0.0002
     37 C          18.2734   20.9191    2.2467 C.ar    1  UNL1        0.0014
     38 C          18.4615   23.1721   -1.6441 C.3     1  UNL1        0.4186
     39 F          18.5242   23.9231   -2.9411 F       1  UNL1       -0.1659
     40 F          18.4050   24.4704   -0.8950 F       1  UNL1       -0.1659
     41 F          18.5181   21.8738   -2.3932 F       1  UNL1       -0.1659
     42 C          24.0167   17.8292   -0.9626 C.3     1  UNL1        0.0486
     43 C          24.6170   17.9478   -2.3322 C.ar    1  UNL1       -0.0204
     44 C          23.8675   18.6573   -3.4207 C.ar    1  UNL1       -0.0042
     45 C          24.4678   18.7759   -4.7902 C.ar    1  UNL1       -0.0003
     46 C          25.8174   18.1848   -5.0712 C.ar    1  UNL1       -0.0000
     47 C          26.5669   17.4752   -3.9827 C.ar    1  UNL1       -0.0003
     48 C          25.9666   17.3567   -2.6132 C.ar    1  UNL1       -0.0042
@<TRIPOS>UNITY_ATOM_ATTR
28 1
charge 1
@<TRIPOS>BOND
     1    12    13    2
     2    12    14    2
     3    12    15    1
     4    15    16    1
     5    16    17    1
     6    17    18    1
     7    18    19    1
     8    15     6    1
     9     6     7   ar
    10     7     8   ar
    11     8     9   ar
    12     9    10   ar
    13    10    20    1
    14    20    22    1
    15    22    23    1
    16    10    11   ar
    17     8     2    1
    18     2     3    2
    19     2     4   am
    20     4     1    1
    21     1    24    1
    22    24    25    1
    23    24    27    1
    24    27    28    1
    25    28    31    1
    26    31    32    1
    27    32    33   ar
    28    33    34   ar
    29    34    35   ar
    30    35    36   ar
    31    36    37   ar
    32    34    38    1
    33    38    39    1
    34    38    40    1
    35    38    41    1
    36     1    42    1
    37    42    43    1
    38    43    44   ar
    39    44    45   ar
    40    45    46   ar
    41    46    47   ar
    42    47    48   ar
    43    19    12    1
    44    11     6   ar
    45    37    32   ar
    46    48    43   ar
    47    20    21    1
    48     4     5    1
    49    25    26    1
    50    28    29    1
    51    28    30    1
@<TRIPOS>MOLECULE
*****
 48 51 0 0 0
SMALL
GASTEIGER

@<TRIPOS>ATOM
      1 C          22.5107   19.9655    0.5668 C.3     1  UNL1        0.1089
      2 C          24.6456   21.1739   -0.2886 C.2     1  UNL1        0.2460
      3 O          25.2573   19.8486   -0.6342 O.2     1  UNL1       -0.2701
      4 N          23.2723   21.2324    0.3119 N.am    1  UNL1       -0.2995
      5 H          22.8709   22.1022    0.5388 H       1  UNL1        0.1498
      6 C          25.9328   24.9113    0.0649 C.ar    1  UNL1        0.0698
      7 C          25.1712   23.6445    0.3198 C.ar    1  UNL1        0.0207
      8 C          25.4073   22.4407   -0.5435 C.ar    1  UNL1        0.0559
      9 C          26.4051   22.5038   -1.6617 C.ar    1  UNL1        0.0189
     10 C          27.1668   23.7707   -1.9166 C.ar    1  UNL1        0.0461
     11 C          26.9306   24.9744   -1.0533 C.ar    1  UNL1        0.0304
     12 S          24.4802   26.9656    0.7126 S.O2    1  UNL1        0.0569
     13 O          23.1900   27.4576    0.1265 O.2     1  UNL1       -0.1543
     14 O          24.2682   25.9327   -0.3543 O.2     1  UNL1       -0.1543
     15 N          25.6967   26.1151    0.9282 N.pl3   1  UNL1       -0.1943
     16 C          26.6771   26.4682    2.0072 C.3     1  UNL1        0.1155
     17 C          26.4410   27.6718    2.8705 C.3     1  UNL1        0.0252
     18 C          25.2245   28.5224    2.6548 C.3     1  UNL1        0.0292
     19 C          24.2441   28.1693    1.5759 C.3     1  UNL1        0.1727
     20 N          28.1646   23.8339   -3.0348 N.pl3   1  UNL1       -0.3326
     21 H          27.8580   23.9634   -3.9614 H       1  UNL1        0.1468
     22 C          29.6295   23.6997   -2.7413 C.3     1  UNL1        0.0871
     23 C          30.2700   24.5749   -1.7051 C.3     1  UNL1        0.0229
     24 C          21.4811   19.4981   -0.4189 C.3     1  UNL1        0.1839
     25 O          21.9040   19.0287   -1.7793 O.3     1  UNL1       -0.3775
     26 H          21.2382   18.7265   -2.4167 H       1  UNL1        0.2106
     27 C          20.0287   19.5002   -0.0441 C.3     1  UNL1        0.1339
     28 N          19.0020   19.9848   -1.0244 N.4     1  UNL1        0.2597
     29 H          18.3825   19.3184   -1.4854 H       1  UNL1        0.2040
     30 H          18.3038   20.3144   -1.6909 H       1  UNL1        0.2040
     31 C          18.8862   21.4496   -1.3267 C.3     1  UNL1        0.1298
     32 C          18.4684   22.4068   -0.2501 C.ar    1  UNL1        0.0325
     33 C          19.3526   23.5640    0.1091 C.ar    1  UNL1        0.0052
     34 C          18.9348   24.5213    1.1857 C.ar    1  UNL1        0.0713
     35 C          17.6327   24.3214    1.9030 C.ar    1  UNL1        0.0038
     36 C          16.7485   23.1642    1.5439 C.ar    1  UNL1       -0.0002
     37 C          17.1663   22.2069    0.4673 C.ar    1  UNL1        0.0014
     38 C          19.8190   25.6785    1.5448 C.3     1  UNL1        0.4186
     39 F          20.7033   26.8357    1.9041 F       1  UNL1       -0.1659
     40 F          21.0267   24.8727    1.1676 F       1  UNL1       -0.1659
     41 F          18.6114   26.4842    1.9220 F       1  UNL1       -0.1659
     42 C          22.7785   19.1661    1.8074 C.3     1  UNL1        0.0486
     43 C          23.0993   17.7044    1.7031 C.ar    1  UNL1       -0.0204
     44 C          21.9916   16.6933    1.6800 C.ar    1  UNL1       -0.0042
     45 C          22.3123   15.2317    1.5757 C.ar    1  UNL1       -0.0003
     46 C          23.7407   14.7813    1.4944 C.ar    1  UNL1       -0.0000
     47 C          24.8484   15.7924    1.5174 C.ar    1  UNL1       -0.0003
     48 C          24.5277   17.2540    1.6218 C.ar    1  UNL1       -0.0042
@<TRIPOS>UNITY_ATOM_ATTR
28 1
charge 1
@<TRIPOS>BOND
     1    12    13    2
     2    12    14    2
     3    12    15    1
     4    15    16    1
     5    16    17    1
     6    17    18    1
     7    18    19    1
     8    15     6    1
     9     6     7   ar
    10     7     8   ar
    11     8     9   ar
    12     9    10   ar
    13    10    20    1
    14    20    22    1
    15    22    23    1
    16    10    11   ar
    17     8     2    1
    18     2     3    2
    19     2     4   am
    20     4     1    1
    21     1    24    1
    22    24    25    1
    23    24    27    1
    24    27    28    1
    25    28    31    1
    26    31    32    1
    27    32    33   ar
    28    33    34   ar
    29    34    35   ar
    30    35    36   ar
    31    36    37   ar
    32    34    38    1
    33    38    39    1
    34    38    40    1
    35    38    41    1
    36     1    42    1
    37    42    43    1
    38    43    44   ar
    39    44    45   ar
    40    45    46   ar
    41    46    47   ar
    42    47    48   ar
    43    19    12    1
    44    11     6   ar
    45    37    32   ar
    46    48    43   ar
    47    20    21    1
    48     4     5    1
    49    25    26    1
    50    28    29    1
    51    28    30    1
@<TRIPOS>MOLECULE
*****
 48 51 0 0 0
SMALL
GASTEIGER

@<TRIPOS>ATOM
      1 C          24.2767   18.4923   -0.9615 C.3     1  UNL1        0.1089
      2 C          21.8218   18.6495   -1.7973 C.2     1  UNL1        0.2460
      3 O          22.0939   17.5677   -2.8001 O.2     1  UNL1       -0.2701
      4 N          22.9132   19.1118   -0.8780 N.am    1  UNL1       -0.2995
      5 H          22.7347   19.8219   -0.2198 H       1  UNL1        0.1498
      6 C          18.8808   21.1221   -0.8040 C.ar    1  UNL1        0.0698
      7 C          20.2443   20.5026   -0.8875 C.ar    1  UNL1        0.0207
      8 C          20.4583   19.2691   -1.7138 C.ar    1  UNL1        0.0559
      9 C          19.3088   18.6552   -2.4566 C.ar    1  UNL1        0.0189
     10 C          17.9453   19.2748   -2.3731 C.ar    1  UNL1        0.0461
     11 C          17.7313   20.5083   -1.5468 C.ar    1  UNL1        0.0304
     12 S          18.2984   22.2331    1.4712 S.O2    1  UNL1        0.0569
     13 O          17.9639   21.6067    2.7925 O.2     1  UNL1       -0.1543
     14 O          18.3962   20.7821    1.1038 O.2     1  UNL1       -0.1543
     15 N          18.6668   22.3556    0.0224 N.pl3   1  UNL1       -0.1943
     16 C          18.8211   23.7115   -0.6002 C.3     1  UNL1        0.1155
     17 C          18.6071   24.9450    0.2261 C.3     1  UNL1        0.0252
     18 C          18.2387   24.8225    1.6749 C.3     1  UNL1        0.0292
     19 C          18.0843   23.4666    2.2975 C.3     1  UNL1        0.1727
     20 N          16.7958   18.6610   -3.1160 N.pl3   1  UNL1       -0.3326
     21 H          15.8981   19.0600   -3.0506 H       1  UNL1        0.1468
     22 C          17.0140   17.4391   -3.9584 C.3     1  UNL1        0.0871
     23 C          17.5123   17.5781   -5.3663 C.3     1  UNL1        0.0229
     24 C          24.6932   17.4577    0.0418 C.3     1  UNL1        0.1839
     25 O          25.8401   17.7312    0.9690 O.3     1  UNL1       -0.3775
     26 H          26.1094   17.0623    1.6178 H       1  UNL1        0.2106
     27 C          23.9628   16.1498    0.1177 C.3     1  UNL1        0.1339
     28 N          24.2887   15.1710    1.2065 N.4     1  UNL1        0.2597
     29 H          25.2280   14.7796    1.2760 H       1  UNL1        0.2040
     30 H          24.5103   14.5053    1.9469 H       1  UNL1        0.2040
     31 C          23.2332   14.7676    2.1931 C.3     1  UNL1        0.1298
     32 C          23.1651   13.3510    2.6814 C.ar    1  UNL1        0.0325
     33 C          21.8430   12.6463    2.7566 C.ar    1  UNL1        0.0052
     34 C          21.7750   11.2297    3.2449 C.ar    1  UNL1        0.0713
     35 C          23.0289   10.5177    3.6581 C.ar    1  UNL1        0.0038
     36 C          24.3509   11.2223    3.5830 C.ar    1  UNL1       -0.0002
     37 C          24.4191   12.6390    3.0946 C.ar    1  UNL1        0.0014
     38 C          20.4530   10.5250    3.3200 C.3     1  UNL1        0.4186
     39 F          19.1308    9.8204    3.3952 F       1  UNL1       -0.1659
     40 F          21.1450    9.2753    3.7775 F       1  UNL1       -0.1659
     41 F          19.7609   11.7747    2.8626 F       1  UNL1       -0.1659
     42 C          25.2238   18.9072   -2.0482 C.3     1  UNL1        0.0486
     43 C          25.7081   20.3251   -2.1199 C.ar    1  UNL1       -0.0204
     44 C          25.4029   21.2793   -1.0036 C.ar    1  UNL1       -0.0042
     45 C          25.8871   22.6971   -1.0753 C.ar    1  UNL1       -0.0003
     46 C          26.6766   23.1608   -2.2634 C.ar    1  UNL1       -0.0000
     47 C          26.9819   22.2065   -3.3798 C.ar    1  UNL1       -0.0003
     48 C          26.4977   20.7887   -3.3080 C.ar    1  UNL1       -0.0042
@<TRIPOS>UNITY_ATOM_ATTR
28 1
charge 1
@<TRIPOS>BOND
     1    12    13    2
     2    12    14    2
     3    12    15    1
     4    15    16    1
     5    16    17    1
     6    17    18    1
     7    18    19    1
     8    15     6    1
     9     6     7   ar
    10     7     8   ar
    11     8     9   ar
    12     9    10   ar
    13    10    20    1
    14    20    22    1
    15    22    23    1
    16    10    11   ar
    17     8     2    1
    18     2     3    2
    19     2     4   am
    20     4     1    1
    21     1    24    1
    22    24    25    1
    23    24    27    1
    24    27    28    1
    25    28    31    1
    26    31    32    1
    27    32    33   ar
    28    33    34   ar
    29    34    35   ar
    30    35    36   ar
    31    36    37   ar
    32    34    38    1
    33    38    39    1
    34    38    40    1
    35    38    41    1
    36     1    42    1
    37    42    43    1
    38    43    44   ar
    39    44    45   ar
    40    45    46   ar
    41    46    47   ar
    42    47    48   ar
    43    19    12    1
    44    11     6   ar
    45    37    32   ar
    46    48    43   ar
    47    20    21    1
    48     4     5    1
    49    25    26    1
    50    28    29    1
    51    28    30    1
@<TRIPOS>MOLECULE
*****
 48 51 0 0 0
SMALL
GASTEIGER

@<TRIPOS>ATOM
      1 C          24.3731   18.6019   -2.3187 C.3     1  UNL1        0.1089
      2 C          21.7926   18.3974   -2.5410 C.2     1  UNL1        0.2460
      3 O          21.9586   17.0982   -3.2721 O.2     1  UNL1       -0.2701
      4 N          22.9999   19.1492   -2.0643 N.am    1  UNL1       -0.2995
      5 H          22.8910   20.0019   -1.5844 H       1  UNL1        0.1498
      6 C          18.8726   20.7186   -1.1863 C.ar    1  UNL1        0.0698
      7 C          20.2458   20.1713   -1.4407 C.ar    1  UNL1        0.0207
      8 C          20.4195   18.9447   -2.2866 C.ar    1  UNL1        0.0559
      9 C          19.2199   18.2655   -2.8779 C.ar    1  UNL1        0.0189
     10 C          17.8467   18.8129   -2.6235 C.ar    1  UNL1        0.0461
     11 C          17.6731   20.0394   -1.7777 C.ar    1  UNL1        0.0304
     12 S          18.4848   21.8125    1.1382 S.O2    1  UNL1        0.0569
     13 O          18.3100   21.1771    2.4857 O.2     1  UNL1       -0.1543
     14 O          18.5978   20.3652    0.7604 O.2     1  UNL1       -0.1543
     15 N          18.6989   21.9452   -0.3405 N.pl3   1  UNL1       -0.1943
     16 C          18.7394   23.3046   -0.9734 C.3     1  UNL1        0.1155
     17 C          18.5657   24.5311   -0.1277 C.3     1  UNL1        0.0252
     18 C          18.3516   24.3984    1.3510 C.3     1  UNL1        0.0292
     19 C          18.3112   23.0390    1.9839 C.3     1  UNL1        0.1727
     20 N          16.6471   18.1337   -3.2149 N.pl3   1  UNL1       -0.3326
     21 H          15.8753   17.9132   -2.6448 H       1  UNL1        0.1468
     22 C          16.6235   17.7904   -4.6749 C.3     1  UNL1        0.0871
     23 C          15.6362   16.7872   -5.1936 C.3     1  UNL1        0.0229
     24 C          25.0687   17.7993   -1.2594 C.3     1  UNL1        0.1839
     25 O          25.5633   18.4715   -0.0129 O.3     1  UNL1       -0.3775
     26 H          26.0131   17.9525    0.6721 H       1  UNL1        0.2106
     27 C          25.2698   16.3247   -1.4466 C.3     1  UNL1        0.1339
     28 N          24.1047   15.4476   -1.7976 N.4     1  UNL1        0.2597
     29 H          23.8775   15.2688   -2.7757 H       1  UNL1        0.2040
     30 H          23.3125   14.8511   -2.0363 H       1  UNL1        0.2040
     31 C          23.2739   14.8333   -0.7101 C.3     1  UNL1        0.1298
     32 C          22.0616   15.5516   -0.1961 C.ar    1  UNL1        0.0325
     33 C          22.2185   16.7103    0.7435 C.ar    1  UNL1        0.0052
     34 C          21.0062   17.4286    1.2575 C.ar    1  UNL1        0.0713
     35 C          19.6369   16.9882    0.8320 C.ar    1  UNL1        0.0038
     36 C          19.4799   15.8295   -0.1075 C.ar    1  UNL1       -0.0002
     37 C          20.6923   15.1112   -0.6216 C.ar    1  UNL1        0.0014
     38 C          21.1631   18.5873    2.1971 C.3     1  UNL1        0.4186
     39 F          21.3201   19.7460    3.1367 F       1  UNL1       -0.1659
     40 F          22.4995   18.8978    1.5908 F       1  UNL1       -0.1659
     41 F          19.8268   18.2767    2.8033 F       1  UNL1       -0.1659
     42 C          25.0507   18.8571   -3.6323 C.3     1  UNL1        0.0486
     43 C          26.0669   19.9540   -3.7515 C.ar    1  UNL1       -0.0204
     44 C          27.3254   19.7285   -4.5360 C.ar    1  UNL1       -0.0042
     45 C          28.3416   20.8253   -4.6551 C.ar    1  UNL1       -0.0003
     46 C          28.0994   22.1476   -3.9897 C.ar    1  UNL1       -0.0000
     47 C          26.8410   22.3731   -3.2052 C.ar    1  UNL1       -0.0003
     48 C          25.8247   21.2763   -3.0860 C.ar    1  UNL1       -0.0042
@<TRIPOS>UNITY_ATOM_ATTR
28 1
charge 1
@<TRIPOS>BOND
     1    12    13    2
     2    12    14    2
     3    12    15    1
     4    15    16    1
     5    16    17    1
     6    17    18    1
     7    18    19    1
     8    15     6    1
     9     6     7   ar
    10     7     8   ar
    11     8     9   ar
    12     9    10   ar
    13    10    20    1
    14    20    22    1
    15    22    23    1
    16    10    11   ar
    17     8     2    1
    18     2     3    2
    19     2     4   am
    20     4     1    1
    21     1    24    1
    22    24    25    1
    23    24    27    1
    24    27    28    1
    25    28    31    1
    26    31    32    1
    27    32    33   ar
    28    33    34   ar
    29    34    35   ar
    30    35    36   ar
    31    36    37   ar
    32    34    38    1
    33    38    39    1
    34    38    40    1
    35    38    41    1
    36     1    42    1
    37    42    43    1
    38    43    44   ar
    39    44    45   ar
    40    45    46   ar
    41    46    47   ar
    42    47    48   ar
    43    19    12    1
    44    11     6   ar
    45    37    32   ar
    46    48    43   ar
    47    20    21    1
    48     4     5    1
    49    25    26    1
    50    28    29    1
    51    28    30    1
@<TRIPOS>MOLECULE
*****
 48 51 0 0 0
SMALL
GASTEIGER

@<TRIPOS>ATOM
      1 C          23.0654   17.0487    0.8983 C.3     1  UNL1        0.1089
      2 C          25.2427   16.4438   -0.3836 C.2     1  UNL1        0.2460
      3 O          25.8746   15.9961    0.9010 O.2     1  UNL1       -0.2701
      4 N          23.8381   16.9701   -0.3849 N.am    1  UNL1       -0.2995
      5 H          23.4233   17.2640   -1.2281 H       1  UNL1        0.1498
      6 C          28.2607   16.5720   -2.9575 C.ar    1  UNL1        0.0698
      7 C          27.4880   16.6506   -1.6743 C.ar    1  UNL1        0.0207
      8 C          26.0154   16.3652   -1.6668 C.ar    1  UNL1        0.0559
      9 C          25.3156   16.0011   -2.9426 C.ar    1  UNL1        0.0189
     10 C          26.0884   15.9225   -4.2259 C.ar    1  UNL1        0.0461
     11 C          27.5609   16.2079   -4.2333 C.ar    1  UNL1        0.0304
     12 S          30.2315   18.2188   -3.3503 S.O2    1  UNL1        0.0569
     13 O          30.2164   19.6543   -3.7855 O.2     1  UNL1       -0.1543
     14 O          28.7536   18.4319   -3.4940 O.2     1  UNL1       -0.1543
     15 N          29.7334   16.8575   -2.9649 N.pl3   1  UNL1       -0.1943
     16 C          30.7078   15.7815   -2.5871 C.3     1  UNL1        0.1155
     17 C          32.1803   16.0669   -2.5945 C.3     1  UNL1        0.0252
     18 C          32.6784   17.4283   -2.9798 C.3     1  UNL1        0.0292
     19 C          31.7040   18.5042   -3.3577 C.3     1  UNL1        0.1727
     20 N          25.3885   15.5584   -5.5017 N.pl3   1  UNL1       -0.3326
     21 H          25.2944   14.6128   -5.7589 H       1  UNL1        0.1468
     22 C          24.8321   16.6352   -6.3855 C.3     1  UNL1        0.0871
     23 C          25.7420   17.3970   -7.3030 C.3     1  UNL1        0.0229
     24 C          23.2820   18.2002    1.8349 C.3     1  UNL1        0.1839
     25 O          24.6666   18.5334    2.3061 O.3     1  UNL1       -0.3775
     26 H          24.8067   19.2780    2.9118 H       1  UNL1        0.2106
     27 C          22.1142   19.0184    2.3003 C.3     1  UNL1        0.1339
     28 N          21.9655   20.4399    1.8452 N.4     1  UNL1        0.2597
     29 H          22.4382   21.1893    2.3505 H       1  UNL1        0.2040
     30 H          21.8644   21.4065    1.5357 H       1  UNL1        0.2040
     31 C          21.1216   20.7594    0.6469 C.3     1  UNL1        0.1298
     32 C          19.8163   21.4780    0.8189 C.ar    1  UNL1        0.0325
     33 C          19.8032   22.9456    1.1289 C.ar    1  UNL1        0.0052
     34 C          18.4978   23.6642    1.3010 C.ar    1  UNL1        0.0713
     35 C          17.2055   22.9152    1.1630 C.ar    1  UNL1        0.0038
     36 C          17.2186   21.4477    0.8530 C.ar    1  UNL1       -0.0002
     37 C          18.5240   20.7290    0.6809 C.ar    1  UNL1        0.0014
     38 C          18.4848   25.1317    1.6110 C.3     1  UNL1        0.4186
     39 F          18.4717   26.5993    1.9209 F       1  UNL1       -0.1659
     40 F          18.3839   24.8215    3.0750 F       1  UNL1       -0.1659
     41 F          18.5856   25.4419    0.1469 F       1  UNL1       -0.1659
     42 C          22.0760   15.9759    1.2449 C.3     1  UNL1        0.0486
     43 C          22.5369   14.5595    1.4224 C.ar    1  UNL1       -0.0204
     44 C          22.6356   13.6486    0.2347 C.ar    1  UNL1       -0.0042
     45 C          23.0965   12.2322    0.4121 C.ar    1  UNL1       -0.0003
     46 C          23.4587   11.7268    1.7771 C.ar    1  UNL1       -0.0000
     47 C          23.3601   12.6377    2.9647 C.ar    1  UNL1       -0.0003
     48 C          22.8992   14.0541    2.7874 C.ar    1  UNL1       -0.0042
@<TRIPOS>UNITY_ATOM_ATTR
28 1
charge 1
@<TRIPOS>BOND
     1    12    13    2
     2    12    14    2
     3    12    15    1
     4    15    16    1
     5    16    17    1
     6    17    18    1
     7    18    19    1
     8    15     6    1
     9     6     7   ar
    10     7     8   ar
    11     8     9   ar
    12     9    10   ar
    13    10    20    1
    14    20    22    1
    15    22    23    1
    16    10    11   ar
    17     8     2    1
    18     2     3    2
    19     2     4   am
    20     4     1    1
    21     1    24    1
    22    24    25    1
    23    24    27    1
    24    27    28    1
    25    28    31    1
    26    31    32    1
    27    32    33   ar
    28    33    34   ar
    29    34    35   ar
    30    35    36   ar
    31    36    37   ar
    32    34    38    1
    33    38    39    1
    34    38    40    1
    35    38    41    1
    36     1    42    1
    37    42    43    1
    38    43    44   ar
    39    44    45   ar
    40    45    46   ar
    41    46    47   ar
    42    47    48   ar
    43    19    12    1
    44    11     6   ar
    45    37    32   ar
    46    48    43   ar
    47    20    21    1
    48     4     5    1
    49    25    26    1
    50    28    29    1
    51    28    30    1
@<TRIPOS>MOLECULE
*****
 52 55 0 0 0
SMALL
GASTEIGER

@<TRIPOS>ATOM
      1 C          25.5446   25.4272   -0.0076 C.3     1  UNL1        0.1089
      2 C          25.9596   23.2327   -1.3351 C.2     1  UNL1        0.2460
      3 O          26.8101   23.9860   -2.3145 O.2     1  UNL1       -0.2701
      4 N          25.3269   23.9533   -0.1817 N.am    1  UNL1       -0.2995
      5 H          24.7687   23.4589    0.4612 H       1  UNL1        0.1498
      6 C          24.7220   19.5208   -0.6718 C.ar    1  UNL1        0.0747
      7 C          24.9398   20.9946   -0.4978 C.ar    1  UNL1        0.0211
      8 C          25.7419   21.7588   -1.5090 C.ar    1  UNL1        0.0559
      9 C          26.3263   21.0491   -2.6943 C.ar    1  UNL1        0.0189
     10 C          26.1085   19.5752   -2.8683 C.ar    1  UNL1        0.0461
     11 C          25.3064   18.8111   -1.8571 C.ar    1  UNL1        0.0308
     12 N          26.6929   18.8655   -4.0535 N.pl3   1  UNL1       -0.3326
     13 H          26.6027   17.8887   -4.1360 H       1  UNL1        0.1468
     14 C          27.4147   19.6442   -5.1131 C.3     1  UNL1        0.0871
     15 C          26.6440   20.2842   -6.2295 C.3     1  UNL1        0.0229
     16 N          23.9199   18.7566    0.3395 N.pl3   1  UNL1       -0.1729
     17 C          22.5972   19.2891    0.8053 C.ar    1  UNL1        0.0733
     18 C          22.1556   19.0661    2.2213 C.ar    1  UNL1        0.0165
     19 C          20.8329   19.5987    2.6871 C.ar    1  UNL1        0.0013
     20 C          19.9519   20.3542    1.7368 C.ar    1  UNL1        0.0001
     21 C          20.3935   20.5772    0.3208 C.ar    1  UNL1        0.0013
     22 C          21.7162   20.0446   -0.1450 C.ar    1  UNL1        0.0165
     23 S          24.4404   17.4598    0.8849 S.O2    1  UNL1        0.0623
     24 O          23.3705   16.7173    0.1407 O.2     1  UNL1       -0.1539
     25 O          25.5104   18.2024    1.6291 O.2     1  UNL1       -0.1539
     26 C          24.9610   16.1631    1.4303 C.3     1  UNL1        0.2002
     27 C          24.5483   26.4029   -0.5603 C.3     1  UNL1        0.1839
     28 O          24.5053   26.6769   -2.0345 O.3     1  UNL1       -0.3775
     29 H          23.8610   27.3079   -2.3919 H       1  UNL1        0.2106
     30 C          23.5952   27.1046    0.3611 C.3     1  UNL1        0.1338
     31 N          23.4629   26.6564    1.7864 N.4     1  UNL1        0.2586
     32 H          24.2975   26.4993    2.3512 H       1  UNL1        0.2039
     33 H          23.3729   26.3516    2.7556 H       1  UNL1        0.2039
     34 C          22.1030   26.4391    2.3811 C.3     1  UNL1        0.1298
     35 C          21.6258   27.3148    3.5016 C.3     1  UNL1        0.0710
     36 C          21.2204   25.3462    1.8553 C.2     1  UNL1        0.2719
     37 O          21.7656   23.9594    1.6831 O.2     1  UNL1       -0.2690
     38 N          19.7926   25.6400    1.5018 N.am    1  UNL1       -0.3014
     39 H          19.4347   26.5501    1.6148 H       1  UNL1        0.1496
     40 C          18.9100   24.5470    0.9760 C.3     1  UNL1        0.0717
     41 C          18.0197   23.7859    1.9130 C.3     1  UNL1        0.0196
     42 C          17.1371   22.6929    1.3872 C.3     1  UNL1        0.0017
     43 C          17.1447   22.3612   -0.0756 C.3     1  UNL1        0.0001
     44 C          18.0350   23.1223   -1.0126 C.3     1  UNL1        0.0017
     45 C          18.9176   24.2153   -0.4868 C.3     1  UNL1        0.0196
     46 C          26.7586   25.9253    0.7190 C.3     1  UNL1        0.0486
     47 C          27.0140   27.3992    0.8301 C.ar    1  UNL1       -0.0204
     48 C          27.1675   28.2293   -0.4099 C.ar    1  UNL1       -0.0042
     49 C          27.4230   29.7033   -0.2988 C.ar    1  UNL1       -0.0003
     50 C          27.5249   30.3471    1.0521 C.ar    1  UNL1       -0.0000
     51 C          27.3713   29.5170    2.2921 C.ar    1  UNL1       -0.0003
     52 C          27.1159   28.0431    2.1810 C.ar    1  UNL1       -0.0042
@<TRIPOS>UNITY_ATOM_ATTR
31 1
charge 1
@<TRIPOS>BOND
     1    23    24    2
     2    23    25    2
     3    23    16    1
     4    16     6    1
     5     6     7   ar
     6     7     8   ar
     7     8     9   ar
     8     9    10   ar
     9    10    12    1
    10    12    14    1
    11    14    15    1
    12    10    11   ar
    13     8     2    1
    14     2     3    2
    15     2     4   am
    16     4     1    1
    17     1    27    1
    18    27    28    1
    19    27    30    1
    20    30    31    1
    21    31    34    1
    22    34    36    1
    23    36    37    2
    24    36    38   am
    25    38    40    1
    26    40    41    1
    27    41    42    1
    28    42    43    1
    29    43    44    1
    30    44    45    1
    31    34    35    1
    32     1    46    1
    33    46    47    1
    34    47    48   ar
    35    48    49   ar
    36    49    50   ar
    37    50    51   ar
    38    51    52   ar
    39    16    17    1
    40    17    18   ar
    41    18    19   ar
    42    19    20   ar
    43    20    21   ar
    44    21    22   ar
    45    23    26    1
    46    11     6   ar
    47    45    40    1
    48    52    47   ar
    49    22    17   ar
    50    12    13    1
    51     4     5    1
    52    28    29    1
    53    31    32    1
    54    31    33    1
    55    38    39    1
@<TRIPOS>MOLECULE
*****
 52 55 0 0 0
SMALL
GASTEIGER

@<TRIPOS>ATOM
      1 C          26.4906   27.0845    0.6834 C.3     1  UNL1        0.1089
      2 C          25.2060   28.1940   -1.2835 C.2     1  UNL1        0.2460
      3 O          24.6428   26.8583   -1.6691 O.2     1  UNL1       -0.2701
      4 N          26.1300   28.3071   -0.1073 N.am    1  UNL1       -0.2995
      5 H          26.4996   29.1838    0.1458 H       1  UNL1        0.1498
      6 C          23.9619   31.8582   -2.1644 C.ar    1  UNL1        0.0747
      7 C          24.3226   30.6356   -1.3737 C.ar    1  UNL1        0.0211
      8 C          24.8454   29.4166   -2.0742 C.ar    1  UNL1        0.0559
      9 C          25.0075   29.4202   -3.5654 C.ar    1  UNL1        0.0189
     10 C          24.6469   30.6428   -4.3561 C.ar    1  UNL1        0.0461
     11 C          24.1241   31.8618   -3.6556 C.ar    1  UNL1        0.0308
     12 N          24.8090   30.6464   -5.8473 N.pl3   1  UNL1       -0.3326
     13 H          24.1183   31.0564   -6.4166 H       1  UNL1        0.1468
     14 C          26.0235   30.0253   -6.4712 C.3     1  UNL1        0.0871
     15 C          25.8952   28.7566   -7.2611 C.3     1  UNL1        0.0229
     16 N          23.4391   33.0772   -1.4639 N.pl3   1  UNL1       -0.1729
     17 C          22.3345   32.9480   -0.4573 C.ar    1  UNL1        0.0733
     18 C          22.5576   33.3823    0.9610 C.ar    1  UNL1        0.0165
     19 C          21.4529   33.2530    1.9675 C.ar    1  UNL1        0.0013
     20 C          20.1252   32.6895    1.5557 C.ar    1  UNL1        0.0001
     21 C          19.9022   32.2551    0.1374 C.ar    1  UNL1        0.0013
     22 C          21.0068   32.3844   -0.8691 C.ar    1  UNL1        0.0165
     23 S          24.0209   34.4255   -1.7699 S.O2    1  UNL1        0.0623
     24 O          25.3123   34.0141   -1.1271 O.2     1  UNL1       -0.1539
     25 O          22.7296   34.8368   -2.4127 O.2     1  UNL1       -0.1539
     26 C          24.6028   35.7737   -2.0760 C.3     1  UNL1        0.2002
     27 C          25.8803   26.8583    2.0348 C.3     1  UNL1        0.1839
     28 O          26.6519   27.2043    3.2737 O.3     1  UNL1       -0.3775
     29 H          26.2572   27.0580    4.1477 H       1  UNL1        0.2106
     30 C          24.4983   26.2859    2.1473 C.3     1  UNL1        0.1338
     31 N          23.4255   26.7238    1.1949 N.4     1  UNL1        0.2586
     32 H          23.6709   27.0124    0.2479 H       1  UNL1        0.2039
     33 H          22.6959   27.0216    0.5472 H       1  UNL1        0.2039
     34 C          21.9915   26.7373    1.6351 C.3     1  UNL1        0.1298
     35 C          21.4354   27.9373    2.3426 C.3     1  UNL1        0.0710
     36 C          21.1138   25.5506    1.3679 C.2     1  UNL1        0.2719
     37 O          21.6899   24.1663    1.4126 O.2     1  UNL1       -0.2690
     38 N          19.6600   25.7482    1.0559 N.am    1  UNL1       -0.3014
     39 H          19.2819   26.6567    1.0265 H       1  UNL1        0.1496
     40 C          18.7822   24.5615    0.7886 C.3     1  UNL1        0.0717
     41 C          18.7611   23.9362   -0.5746 C.3     1  UNL1        0.0196
     42 C          17.8833   22.7495   -0.8418 C.3     1  UNL1        0.0017
     43 C          17.0268   22.1882    0.2541 C.3     1  UNL1        0.0001
     44 C          17.0480   22.8135    1.6174 C.3     1  UNL1        0.0017
     45 C          17.9257   24.0002    1.8846 C.3     1  UNL1        0.0196
     46 C          27.4617   26.0882    0.1227 C.3     1  UNL1        0.0486
     47 C          26.9620   24.7982   -0.4570 C.ar    1  UNL1       -0.0204
     48 C          27.3686   24.3912   -1.8423 C.ar    1  UNL1       -0.0042
     49 C          26.8688   23.1012   -2.4221 C.ar    1  UNL1       -0.0003
     50 C          25.9624   22.2182   -1.6166 C.ar    1  UNL1       -0.0000
     51 C          25.5557   22.6253   -0.2313 C.ar    1  UNL1       -0.0003
     52 C          26.0555   23.9152    0.3484 C.ar    1  UNL1       -0.0042
@<TRIPOS>UNITY_ATOM_ATTR
31 1
charge 1
@<TRIPOS>BOND
     1    23    24    2
     2    23    25    2
     3    23    16    1
     4    16     6    1
     5     6     7   ar
     6     7     8   ar
     7     8     9   ar
     8     9    10   ar
     9    10    12    1
    10    12    14    1
    11    14    15    1
    12    10    11   ar
    13     8     2    1
    14     2     3    2
    15     2     4   am
    16     4     1    1
    17     1    27    1
    18    27    28    1
    19    27    30    1
    20    30    31    1
    21    31    34    1
    22    34    36    1
    23    36    37    2
    24    36    38   am
    25    38    40    1
    26    40    41    1
    27    41    42    1
    28    42    43    1
    29    43    44    1
    30    44    45    1
    31    34    35    1
    32     1    46    1
    33    46    47    1
    34    47    48   ar
    35    48    49   ar
    36    49    50   ar
    37    50    51   ar
    38    51    52   ar
    39    16    17    1
    40    17    18   ar
    41    18    19   ar
    42    19    20   ar
    43    20    21   ar
    44    21    22   ar
    45    23    26    1
    46    11     6   ar
    47    45    40    1
    48    52    47   ar
    49    22    17   ar
    50    12    13    1
    51     4     5    1
    52    28    29    1
    53    31    32    1
    54    31    33    1
    55    38    39    1
@<TRIPOS>MOLECULE
*****
 52 55 0 0 0
SMALL
GASTEIGER

@<TRIPOS>ATOM
      1 C          22.6158   25.7162    1.7437 C.3     1  UNL1        0.1089
      2 C          23.4371   28.0442    0.9338 C.2     1  UNL1        0.2460
      3 O          23.8925   28.3679    2.3258 O.2     1  UNL1       -0.2701
      4 N          22.7987   26.7184    0.6427 N.am    1  UNL1       -0.2995
      5 H          22.4998   26.5060   -0.2709 H       1  UNL1        0.1498
      6 C          23.2320   31.4286   -1.1288 C.ar    1  UNL1        0.0747
      7 C          23.0491   30.4265   -0.0277 C.ar    1  UNL1        0.0211
      8 C          23.6200   29.0464   -0.1673 C.ar    1  UNL1        0.0559
      9 C          24.3738   28.6685   -1.4078 C.ar    1  UNL1        0.0189
     10 C          24.5567   29.6706   -2.5088 C.ar    1  UNL1        0.0461
     11 C          23.9858   31.0506   -2.3693 C.ar    1  UNL1        0.0308
     12 N          25.3104   29.2927   -3.7494 N.pl3   1  UNL1       -0.3326
     13 H          25.9847   28.5760   -3.7166 H       1  UNL1        0.1468
     14 C          25.0369   30.0065   -5.0399 C.3     1  UNL1        0.0871
     15 C          25.5150   29.4224   -6.3361 C.3     1  UNL1        0.0229
     16 N          22.6611   32.8087   -0.9893 N.pl3   1  UNL1       -0.1729
     17 C          21.5175   33.0559   -0.0507 C.ar    1  UNL1        0.0733
     18 C          20.1243   33.2004   -0.5876 C.ar    1  UNL1        0.0165
     19 C          18.9807   33.4477    0.3511 C.ar    1  UNL1        0.0013
     20 C          19.2302   33.5504    1.8266 C.ar    1  UNL1        0.0001
     21 C          20.6234   33.4059    2.3635 C.ar    1  UNL1        0.0013
     22 C          21.7670   33.1587    1.4249 C.ar    1  UNL1        0.0165
     23 S          23.2338   33.9416   -1.7884 S.O2    1  UNL1        0.0623
     24 O          24.3526   34.0745   -0.7981 O.2     1  UNL1       -0.1539
     25 O          22.1151   33.8086   -2.7787 O.2     1  UNL1       -0.1539
     26 C          23.8066   35.0744   -2.5875 C.3     1  UNL1        0.2002
     27 C          21.4176   25.7995    2.6422 C.3     1  UNL1        0.1839
     28 O          21.5823   26.2083    4.0760 O.3     1  UNL1       -0.3775
     29 H          20.8074   26.2621    4.6571 H       1  UNL1        0.2106
     30 C          20.0547   25.4738    2.1070 C.3     1  UNL1        0.1338
     31 N          19.2429   24.3812    2.7371 N.4     1  UNL1        0.2586
     32 H          19.1440   24.3395    3.7514 H       1  UNL1        0.2039
     33 H          18.6909   23.6382    3.1656 H       1  UNL1        0.2039
     34 C          18.5765   23.3498    1.8755 C.3     1  UNL1        0.1298
     35 C          17.1369   23.5134    1.4874 C.3     1  UNL1        0.0710
     36 C          19.3499   22.1549    1.4021 C.2     1  UNL1        0.2719
     37 O          20.7763   22.3099    0.9646 O.2     1  UNL1       -0.2690
     38 N          18.6968   20.8050    1.3661 N.am    1  UNL1       -0.3014
     39 H          17.7606   20.7033    1.6532 H       1  UNL1        0.1496
     40 C          19.4701   19.6101    0.8927 C.3     1  UNL1        0.0717
     41 C          20.1806   18.7359    1.8832 C.3     1  UNL1        0.0196
     42 C          20.9539   17.5410    1.4097 C.3     1  UNL1        0.0017
     43 C          21.0168   17.2203   -0.0542 C.3     1  UNL1        0.0001
     44 C          20.3064   18.0944   -1.0447 C.3     1  UNL1        0.0017
     45 C          19.5330   19.2893   -0.5712 C.3     1  UNL1        0.0196
     46 C          23.6311   24.6308    1.9461 C.3     1  UNL1        0.0486
     47 C          24.9994   24.7622    1.3458 C.ar    1  UNL1       -0.0204
     48 C          26.0277   25.6322    2.0059 C.ar    1  UNL1       -0.0042
     49 C          27.3961   25.7636    1.4054 C.ar    1  UNL1       -0.0003
     50 C          27.7360   25.0251    0.1449 C.ar    1  UNL1       -0.0000
     51 C          26.7077   24.1551   -0.5152 C.ar    1  UNL1       -0.0003
     52 C          25.3394   24.0237    0.0852 C.ar    1  UNL1       -0.0042
@<TRIPOS>UNITY_ATOM_ATTR
31 1
charge 1
@<TRIPOS>BOND
     1    23    24    2
     2    23    25    2
     3    23    16    1
     4    16     6    1
     5     6     7   ar
     6     7     8   ar
     7     8     9   ar
     8     9    10   ar
     9    10    12    1
    10    12    14    1
    11    14    15    1
    12    10    11   ar
    13     8     2    1
    14     2     3    2
    15     2     4   am
    16     4     1    1
    17     1    27    1
    18    27    28    1
    19    27    30    1
    20    30    31    1
    21    31    34    1
    22    34    36    1
    23    36    37    2
    24    36    38   am
    25    38    40    1
    26    40    41    1
    27    41    42    1
    28    42    43    1
    29    43    44    1
    30    44    45    1
    31    34    35    1
    32     1    46    1
    33    46    47    1
    34    47    48   ar
    35    48    49   ar
    36    49    50   ar
    37    50    51   ar
    38    51    52   ar
    39    16    17    1
    40    17    18   ar
    41    18    19   ar
    42    19    20   ar
    43    20    21   ar
    44    21    22   ar
    45    23    26    1
    46    11     6   ar
    47    45    40    1
    48    52    47   ar
    49    22    17   ar
    50    12    13    1
    51     4     5    1
    52    28    29    1
    53    31    32    1
    54    31    33    1
    55    38    39    1
@<TRIPOS>MOLECULE
*****
 52 55 0 0 0
SMALL
GASTEIGER

@<TRIPOS>ATOM
      1 C          21.0224   25.7553    1.7736 C.3     1  UNL1        0.1089
      2 C          22.5256   27.8740    1.8137 C.2     1  UNL1        0.2460
      3 O          22.7713   27.6720    3.2795 O.2     1  UNL1       -0.2701
      4 N          21.6511   26.9157    1.0607 N.am    1  UNL1       -0.2995
      5 H          21.4898   27.0484    0.0986 H       1  UNL1        0.1498
      6 C          23.0250   31.4799    0.2331 C.ar    1  UNL1        0.0747
      7 C          22.3963   30.3196    0.9461 C.ar    1  UNL1        0.0211
      8 C          23.1543   29.0345    1.1007 C.ar    1  UNL1        0.0559
      9 C          24.5409   28.9097    0.5425 C.ar    1  UNL1        0.0189
     10 C          25.1696   30.0700   -0.1705 C.ar    1  UNL1        0.0461
     11 C          24.4117   31.3551   -0.3251 C.ar    1  UNL1        0.0308
     12 N          26.5563   29.9453   -0.7287 N.pl3   1  UNL1       -0.3326
     13 H          26.7497   29.2718   -1.4203 H       1  UNL1        0.1468
     14 C          27.6481   30.8466   -0.2333 C.3     1  UNL1        0.0871
     15 C          28.1119   31.9968   -1.0771 C.3     1  UNL1        0.0229
     16 N          22.2671   32.7651    0.0784 N.pl3   1  UNL1       -0.1729
     17 C          22.9059   33.9343   -0.6106 C.ar    1  UNL1        0.0733
     18 C          22.9006   34.0168   -2.1083 C.ar    1  UNL1        0.0165
     19 C          23.5395   35.1861   -2.7973 C.ar    1  UNL1        0.0013
     20 C          24.1837   36.2728   -1.9886 C.ar    1  UNL1        0.0001
     21 C          24.1890   36.1903   -0.4909 C.ar    1  UNL1        0.0013
     22 C          23.5501   35.0211    0.1981 C.ar    1  UNL1        0.0165
     23 S          20.8703   32.8810    0.6128 S.O2    1  UNL1        0.0623
     24 O          21.4145   33.3178    1.9406 O.2     1  UNL1       -0.1539
     25 O          20.3261   32.4443   -0.7150 O.2     1  UNL1       -0.1539
     26 C          19.4735   32.9970    1.1472 C.3     1  UNL1        0.2002
     27 C          21.8875   24.7141    2.4198 C.3     1  UNL1        0.1839
     28 O          22.3211   24.8791    3.8462 O.3     1  UNL1       -0.3775
     29 H          22.8805   24.2058    4.2641 H       1  UNL1        0.2106
     30 C          22.3190   23.5079    1.6395 C.3     1  UNL1        0.1338
     31 N          21.5517   22.2245    1.7575 N.4     1  UNL1        0.2586
     32 H          20.8459   22.1174    2.4861 H       1  UNL1        0.2039
     33 H          21.0299   21.3517    1.8378 H       1  UNL1        0.2039
     34 C          21.8223   21.0984    0.8041 C.3     1  UNL1        0.1298
     35 C          23.2299   20.7903    0.3876 C.3     1  UNL1        0.0710
     36 C          20.6852   20.2806    0.2673 C.2     1  UNL1        0.2719
     37 O          19.4095   20.1662    1.0482 O.2     1  UNL1       -0.2690
     38 N          20.8237   19.5772   -1.0502 N.am    1  UNL1       -0.3014
     39 H          21.6610   19.6523   -1.5627 H       1  UNL1        0.1496
     40 C          19.6866   18.7594   -1.5870 C.3     1  UNL1        0.0717
     41 C          18.6176   19.4119   -2.4125 C.3     1  UNL1        0.0196
     42 C          17.4805   18.5941   -2.9493 C.3     1  UNL1        0.0017
     43 C          17.4124   17.1237   -2.6606 C.3     1  UNL1        0.0001
     44 C          18.4814   16.4712   -1.8352 C.3     1  UNL1        0.0017
     45 C          19.6185   17.2890   -1.2984 C.3     1  UNL1        0.0196
     46 C          19.5287   25.6361    1.8403 C.3     1  UNL1        0.0486
     47 C          18.8230   24.5888    1.0310 C.ar    1  UNL1       -0.0204
     48 C          19.1560   24.4121   -0.4208 C.ar    1  UNL1       -0.0042
     49 C          18.4503   23.3646   -1.2301 C.ar    1  UNL1       -0.0003
     50 C          17.4115   22.4940   -0.5875 C.ar    1  UNL1       -0.0000
     51 C          17.0785   22.6707    0.8643 C.ar    1  UNL1       -0.0003
     52 C          17.7842   23.7180    1.6736 C.ar    1  UNL1       -0.0042
@<TRIPOS>UNITY_ATOM_ATTR
31 1
charge 1
@<TRIPOS>BOND
     1    23    24    2
     2    23    25    2
     3    23    16    1
     4    16     6    1
     5     6     7   ar
     6     7     8   ar
     7     8     9   ar
     8     9    10   ar
     9    10    12    1
    10    12    14    1
    11    14    15    1
    12    10    11   ar
    13     8     2    1
    14     2     3    2
    15     2     4   am
    16     4     1    1
    17     1    27    1
    18    27    28    1
    19    27    30    1
    20    30    31    1
    21    31    34    1
    22    34    36    1
    23    36    37    2
    24    36    38   am
    25    38    40    1
    26    40    41    1
    27    41    42    1
    28    42    43    1
    29    43    44    1
    30    44    45    1
    31    34    35    1
    32     1    46    1
    33    46    47    1
    34    47    48   ar
    35    48    49   ar
    36    49    50   ar
    37    50    51   ar
    38    51    52   ar
    39    16    17    1
    40    17    18   ar
    41    18    19   ar
    42    19    20   ar
    43    20    21   ar
    44    21    22   ar
    45    23    26    1
    46    11     6   ar
    47    45    40    1
    48    52    47   ar
    49    22    17   ar
    50    12    13    1
    51     4     5    1
    52    28    29    1
    53    31    32    1
    54    31    33    1
    55    38    39    1
@<TRIPOS>MOLECULE
*****
 52 55 0 0 0
SMALL
GASTEIGER

@<TRIPOS>ATOM
      1 C          22.0211   20.1554    0.5929 C.3     1  UNL1        0.1089
      2 C          24.4270   20.6793   -0.2362 C.2     1  UNL1        0.2460
      3 O          24.9897   19.8009    0.8416 O.2     1  UNL1       -0.2701
      4 N          22.9427   20.8566   -0.3605 N.am    1  UNL1       -0.2995
      5 H          22.5733   21.4331   -1.0679 H       1  UNL1        0.1498
      6 C          26.9449   23.3569   -1.7330 C.ar    1  UNL1        0.0747
      7 C          26.0234   22.6557   -0.7795 C.ar    1  UNL1        0.0211
      8 C          25.3485   21.3805   -1.1897 C.ar    1  UNL1        0.0559
      9 C          25.5951   20.8065   -2.5534 C.ar    1  UNL1        0.0189
     10 C          26.5165   21.5076   -3.5069 C.ar    1  UNL1        0.0461
     11 C          27.1915   22.7828   -3.0967 C.ar    1  UNL1        0.0308
     12 N          26.7631   20.9336   -4.8706 N.pl3   1  UNL1       -0.3326
     13 H          27.5512   20.3656   -5.0305 H       1  UNL1        0.1468
     14 C          25.8089   21.2249   -5.9907 C.3     1  UNL1        0.0871
     15 C          24.9225   20.1380   -6.5227 C.3     1  UNL1        0.0229
     16 N          27.6199   24.6321   -1.3228 N.pl3   1  UNL1       -0.1729
     17 C          26.9344   25.5729   -0.3769 C.ar    1  UNL1        0.0733
     18 C          25.6404   26.2216   -0.7705 C.ar    1  UNL1        0.0165
     19 C          24.9548   27.1624    0.1755 C.ar    1  UNL1        0.0013
     20 C          25.5632   27.4546    1.5150 C.ar    1  UNL1        0.0001
     21 C          26.8572   26.8060    1.9087 C.ar    1  UNL1        0.0013
     22 C          27.5427   25.8651    0.9627 C.ar    1  UNL1        0.0165
     23 S          28.9805   24.9665   -1.8586 S.O2    1  UNL1        0.0623
     24 O          28.3986   26.1249   -2.6133 O.2     1  UNL1       -0.1539
     25 O          29.5624   23.8081   -1.1039 O.2     1  UNL1       -0.1539
     26 C          30.3410   25.3008   -2.3944 C.3     1  UNL1        0.2002
     27 C          21.8128   18.6740    0.4821 C.3     1  UNL1        0.1839
     28 O          22.6976   17.7331    1.2449 O.3     1  UNL1       -0.3775
     29 H          22.5629   16.7752    1.1732 H       1  UNL1        0.2106
     30 C          20.7197   18.1337   -0.3914 C.3     1  UNL1        0.1338
     31 N          20.4083   18.7973   -1.7000 N.4     1  UNL1        0.2586
     32 H          21.1654   19.1458   -2.2880 H       1  UNL1        0.2039
     33 H          20.1966   19.2486   -2.5899 H       1  UNL1        0.2039
     34 C          18.9835   18.9485   -2.1440 C.3     1  UNL1        0.1298
     35 C          18.2076   20.1764   -1.7698 C.3     1  UNL1        0.0710
     36 C          18.3346   17.8717   -2.9622 C.2     1  UNL1        0.2719
     37 O          19.1215   16.6604   -3.3671 O.2     1  UNL1       -0.2690
     38 N          16.8990   18.0060   -3.3756 N.am    1  UNL1       -0.3014
     39 H          16.3826   18.8010   -3.1098 H       1  UNL1        0.1496
     40 C          16.2501   16.9292   -4.1938 C.3     1  UNL1        0.0717
     41 C          15.6672   15.7231   -3.5190 C.3     1  UNL1        0.0196
     42 C          15.0183   14.6462   -4.3372 C.3     1  UNL1        0.0017
     43 C          14.9524   14.7756   -5.8302 C.3     1  UNL1        0.0001
     44 C          15.5354   15.9817   -6.5049 C.3     1  UNL1        0.0017
     45 C          16.1843   17.0585   -5.6867 C.3     1  UNL1        0.0196
     46 C          21.3079   20.9355    1.6572 C.3     1  UNL1        0.0486
     47 C          19.9399   21.4901    1.3910 C.ar    1  UNL1       -0.0204
     48 C          19.7874   22.7952    0.6675 C.ar    1  UNL1       -0.0042
     49 C          18.4193   23.3498    0.4013 C.ar    1  UNL1       -0.0003
     50 C          17.2037   22.5992    0.8586 C.ar    1  UNL1       -0.0000
     51 C          17.3563   21.2941    1.5820 C.ar    1  UNL1       -0.0003
     52 C          18.7243   20.7395    1.8482 C.ar    1  UNL1       -0.0042
@<TRIPOS>UNITY_ATOM_ATTR
31 1
charge 1
@<TRIPOS>BOND
     1    23    24    2
     2    23    25    2
     3    23    16    1
     4    16     6    1
     5     6     7   ar
     6     7     8   ar
     7     8     9   ar
     8     9    10   ar
     9    10    12    1
    10    12    14    1
    11    14    15    1
    12    10    11   ar
    13     8     2    1
    14     2     3    2
    15     2     4   am
    16     4     1    1
    17     1    27    1
    18    27    28    1
    19    27    30    1
    20    30    31    1
    21    31    34    1
    22    34    36    1
    23    36    37    2
    24    36    38   am
    25    38    40    1
    26    40    41    1
    27    41    42    1
    28    42    43    1
    29    43    44    1
    30    44    45    1
    31    34    35    1
    32     1    46    1
    33    46    47    1
    34    47    48   ar
    35    48    49   ar
    36    49    50   ar
    37    50    51   ar
    38    51    52   ar
    39    16    17    1
    40    17    18   ar
    41    18    19   ar
    42    19    20   ar
    43    20    21   ar
    44    21    22   ar
    45    23    26    1
    46    11     6   ar
    47    45    40    1
    48    52    47   ar
    49    22    17   ar
    50    12    13    1
    51     4     5    1
    52    28    29    1
    53    31    32    1
    54    31    33    1
    55    38    39    1
@<TRIPOS>MOLECULE
*****
 52 55 0 0 0
SMALL
GASTEIGER

@<TRIPOS>ATOM
      1 C          23.6493   18.8272   -1.4505 C.3     1  UNL1        0.1089
      2 C          24.8767   20.8918   -0.4602 C.2     1  UNL1        0.2460
      3 O          25.0963   20.1460    0.8225 O.2     1  UNL1       -0.2701
      4 N          24.1532   20.2324   -1.5967 N.am    1  UNL1       -0.2995
      5 H          24.0090   20.7219   -2.4387 H       1  UNL1        0.1498
      6 C          25.2906   24.8021    0.0764 C.ar    1  UNL1        0.0747
      7 C          24.7867   23.3969    0.2227 C.ar    1  UNL1        0.0211
      8 C          25.3806   22.2971   -0.6065 C.ar    1  UNL1        0.0559
      9 C          26.4784   22.6025   -1.5820 C.ar    1  UNL1        0.0189
     10 C          26.9823   24.0076   -1.7283 C.ar    1  UNL1        0.0461
     11 C          26.3884   25.1075   -0.8991 C.ar    1  UNL1        0.0308
     12 N          28.0800   24.3130   -2.7039 N.pl3   1  UNL1       -0.3326
     13 H          28.0321   23.9651   -3.6236 H       1  UNL1        0.1468
     14 C          29.2508   25.1485   -2.2781 C.3     1  UNL1        0.0871
     15 C          30.2965   25.5401   -3.2797 C.3     1  UNL1        0.0229
     16 N          24.6968   25.9020    0.9056 N.pl3   1  UNL1       -0.1729
     17 C          25.5132   27.1159    1.2369 C.ar    1  UNL1        0.0733
     18 C          25.1032   28.4610    0.7148 C.ar    1  UNL1        0.0165
     19 C          25.9197   29.6749    1.0462 C.ar    1  UNL1        0.0013
     20 C          27.1463   29.5437    1.8996 C.ar    1  UNL1        0.0001
     21 C          27.5563   28.1986    2.4217 C.ar    1  UNL1        0.0013
     22 C          26.7398   26.9848    2.0904 C.ar    1  UNL1        0.0165
     23 S          23.2864   25.7880    1.4035 S.O2    1  UNL1        0.0623
     24 O          23.7960   25.3750    2.7525 O.2     1  UNL1       -0.1539
     25 O          22.7768   26.2010    0.0546 O.2     1  UNL1       -0.1539
     26 C          21.8760   25.6740    1.9014 C.3     1  UNL1        0.2002
     27 C          22.2157   18.5786   -1.0856 C.3     1  UNL1        0.1839
     28 O          21.8252   18.4175    0.3537 O.3     1  UNL1       -0.3775
     29 H          20.8982   18.2568    0.5897 H       1  UNL1        0.2106
     30 C          21.1726   18.4911   -2.1599 C.3     1  UNL1        0.1338
     31 N          19.7878   18.0224   -1.8243 N.4     1  UNL1        0.2586
     32 H          19.6245   17.0446   -1.5842 H       1  UNL1        0.2039
     33 H          18.8461   17.7037   -1.5961 H       1  UNL1        0.2039
     34 C          18.6430   18.9916   -1.8419 C.3     1  UNL1        0.1298
     35 C          17.4830   18.7655   -2.7656 C.3     1  UNL1        0.0710
     36 C          18.6584   20.1870   -0.9358 C.2     1  UNL1        0.2719
     37 O          19.4376   20.1470    0.3453 O.2     1  UNL1       -0.2690
     38 N          17.8946   21.4222   -1.3109 N.am    1  UNL1       -0.3014
     39 H          17.3833   21.4485   -2.1517 H       1  UNL1        0.1496
     40 C          17.9100   22.6176   -0.4048 C.3     1  UNL1        0.0717
     41 C          18.7746   23.7980   -0.7351 C.3     1  UNL1        0.0196
     42 C          18.7900   24.9933    0.1710 C.3     1  UNL1        0.0017
     43 C          17.9407   25.0082    1.4073 C.3     1  UNL1        0.0001
     44 C          17.0762   23.8278    1.7376 C.3     1  UNL1        0.0017
     45 C          17.0608   22.6325    0.8315 C.3     1  UNL1        0.0196
     46 C          24.5789   17.6705   -1.6692 C.3     1  UNL1        0.0486
     47 C          25.8560   17.8683   -2.4306 C.ar    1  UNL1       -0.0204
     48 C          27.1432   17.3179   -1.8919 C.ar    1  UNL1       -0.0042
     49 C          28.4204   17.5157   -2.6534 C.ar    1  UNL1       -0.0003
     50 C          28.4103   18.2638   -3.9534 C.ar    1  UNL1       -0.0000
     51 C          27.1231   18.8142   -4.4921 C.ar    1  UNL1       -0.0003
     52 C          25.8460   18.6164   -3.7307 C.ar    1  UNL1       -0.0042
@<TRIPOS>UNITY_ATOM_ATTR
31 1
charge 1
@<TRIPOS>BOND
     1    23    24    2
     2    23    25    2
     3    23    16    1
     4    16     6    1
     5     6     7   ar
     6     7     8   ar
     7     8     9   ar
     8     9    10   ar
     9    10    12    1
    10    12    14    1
    11    14    15    1
    12    10    11   ar
    13     8     2    1
    14     2     3    2
    15     2     4   am
    16     4     1    1
    17     1    27    1
    18    27    28    1
    19    27    30    1
    20    30    31    1
    21    31    34    1
    22    34    36    1
    23    36    37    2
    24    36    38   am
    25    38    40    1
    26    40    41    1
    27    41    42    1
    28    42    43    1
    29    43    44    1
    30    44    45    1
    31    34    35    1
    32     1    46    1
    33    46    47    1
    34    47    48   ar
    35    48    49   ar
    36    49    50   ar
    37    50    51   ar
    38    51    52   ar
    39    16    17    1
    40    17    18   ar
    41    18    19   ar
    42    19    20   ar
    43    20    21   ar
    44    21    22   ar
    45    23    26    1
    46    11     6   ar
    47    45    40    1
    48    52    47   ar
    49    22    17   ar
    50    12    13    1
    51     4     5    1
    52    28    29    1
    53    31    32    1
    54    31    33    1
    55    38    39    1
@<TRIPOS>MOLECULE
*****
 52 55 0 0 0
SMALL
GASTEIGER

@<TRIPOS>ATOM
      1 C          26.8283   27.0909   -0.3275 C.3     1  UNL1        0.1089
      2 C          25.1153   28.4307   -1.7489 C.2     1  UNL1        0.2460
      3 O          24.2764   27.1967   -1.9012 O.2     1  UNL1       -0.2701
      4 N          26.3913   28.3778   -0.9621 N.am    1  UNL1       -0.2995
      5 H          26.9419   29.1878   -0.8621 H       1  UNL1        0.1498
      6 C          23.7823   32.1461   -2.1598 C.ar    1  UNL1        0.0747
      7 C          24.2193   30.8591   -1.5252 C.ar    1  UNL1        0.0211
      8 C          24.6783   29.7178   -2.3834 C.ar    1  UNL1        0.0559
      9 C          24.7003   29.8634   -3.8762 C.ar    1  UNL1        0.0189
     10 C          24.2633   31.1503   -4.5108 C.ar    1  UNL1        0.0461
     11 C          23.8043   32.2917   -3.6526 C.ar    1  UNL1        0.0308
     12 N          24.2853   31.2960   -6.0035 N.pl3   1  UNL1       -0.3326
     13 H          23.8408   32.0640   -6.4298 H       1  UNL1        0.1468
     14 C          24.9846   30.2714   -6.8468 C.3     1  UNL1        0.0871
     15 C          26.4463   30.4197   -7.1490 C.3     1  UNL1        0.0229
     16 N          23.3233   33.2876   -1.3016 N.pl3   1  UNL1       -0.1729
     17 C          22.2014   33.0885   -0.3260 C.ar    1  UNL1        0.0733
     18 C          20.8864   32.5415   -0.7966 C.ar    1  UNL1        0.0165
     19 C          19.7645   32.3425    0.1790 C.ar    1  UNL1        0.0013
     20 C          19.9577   32.6905    1.6252 C.ar    1  UNL1        0.0001
     21 C          21.2727   33.2375    2.0958 C.ar    1  UNL1        0.0013
     22 C          22.3946   33.4366    1.1203 C.ar    1  UNL1        0.0165
     23 S          23.9862   34.6280   -1.4190 S.O2    1  UNL1        0.0623
     24 O          25.2453   34.0562   -0.8380 O.2     1  UNL1       -0.1539
     25 O          22.7270   35.1998   -2.0001 O.2     1  UNL1       -0.1539
     26 C          24.6491   35.9685   -1.5364 C.3     1  UNL1        0.2002
     27 C          27.5808   26.0744   -1.1343 C.3     1  UNL1        0.1839
     28 O          28.6117   26.5200   -2.1286 O.3     1  UNL1       -0.3775
     29 H          29.0982   25.8627   -2.6503 H       1  UNL1        0.2106
     30 C          27.3022   24.6125   -0.9467 C.3     1  UNL1        0.1338
     31 N          26.0616   24.0045   -1.5307 N.4     1  UNL1        0.2586
     32 H          25.2682   24.5979   -1.7729 H       1  UNL1        0.2039
     33 H          25.2180   23.5910   -1.9279 H       1  UNL1        0.2039
     34 C          25.9879   22.5237   -1.7587 C.3     1  UNL1        0.1298
     35 C          26.5811   21.9254   -2.9997 C.3     1  UNL1        0.0710
     36 C          25.3209   21.6412   -0.7456 C.2     1  UNL1        0.2719
     37 O          25.6448   21.7940    0.7111 O.2     1  UNL1       -0.2690
     38 N          24.3301   20.6061   -1.1891 N.am    1  UNL1       -0.3014
     39 H          24.1176   20.5058   -2.1451 H       1  UNL1        0.1496
     40 C          23.6631   19.7236   -0.1760 C.3     1  UNL1        0.0717
     41 C          24.4236   18.5921    0.4495 C.3     1  UNL1        0.0196
     42 C          23.7566   17.7096    1.4626 C.3     1  UNL1        0.0017
     43 C          22.3291   17.9587    1.8503 C.3     1  UNL1        0.0001
     44 C          21.5687   19.0902    1.2248 C.3     1  UNL1        0.0017
     45 C          22.2357   19.9727    0.2117 C.3     1  UNL1        0.0196
     46 C          26.5130   26.8202    1.1138 C.3     1  UNL1        0.0486
     47 C          25.0922   26.6025    1.5426 C.ar    1  UNL1       -0.0204
     48 C          24.5549   25.2086    1.6783 C.ar    1  UNL1       -0.0042
     49 C          23.1341   24.9910    2.1071 C.ar    1  UNL1       -0.0003
     50 C          22.2506   26.1672    2.4003 C.ar    1  UNL1       -0.0000
     51 C          22.7879   27.5611    2.2646 C.ar    1  UNL1       -0.0003
     52 C          24.2086   27.7788    1.8358 C.ar    1  UNL1       -0.0042
@<TRIPOS>UNITY_ATOM_ATTR
31 1
charge 1
@<TRIPOS>BOND
     1    23    24    2
     2    23    25    2
     3    23    16    1
     4    16     6    1
     5     6     7   ar
     6     7     8   ar
     7     8     9   ar
     8     9    10   ar
     9    10    12    1
    10    12    14    1
    11    14    15    1
    12    10    11   ar
    13     8     2    1
    14     2     3    2
    15     2     4   am
    16     4     1    1
    17     1    27    1
    18    27    28    1
    19    27    30    1
    20    30    31    1
    21    31    34    1
    22    34    36    1
    23    36    37    2
    24    36    38   am
    25    38    40    1
    26    40    41    1
    27    41    42    1
    28    42    43    1
    29    43    44    1
    30    44    45    1
    31    34    35    1
    32     1    46    1
    33    46    47    1
    34    47    48   ar
    35    48    49   ar
    36    49    50   ar
    37    50    51   ar
    38    51    52   ar
    39    16    17    1
    40    17    18   ar
    41    18    19   ar
    42    19    20   ar
    43    20    21   ar
    44    21    22   ar
    45    23    26    1
    46    11     6   ar
    47    45    40    1
    48    52    47   ar
    49    22    17   ar
    50    12    13    1
    51     4     5    1
    52    28    29    1
    53    31    32    1
    54    31    33    1
    55    38    39    1
@<TRIPOS>MOLECULE
*****
 52 55 0 0 0
SMALL
GASTEIGER

@<TRIPOS>ATOM
      1 C          19.9531   20.2181    0.4440 C.3     1  UNL1        0.1089
      2 C          19.4735   17.7865   -0.3350 C.2     1  UNL1        0.2460
      3 O          19.9136   17.2709    1.0031 O.2     1  UNL1       -0.2701
      4 N          19.4932   19.2600   -0.6145 N.am    1  UNL1       -0.2995
      5 H          19.2043   19.5984   -1.4927 H       1  UNL1        0.1498
      6 C          18.5981   16.2711   -3.8969 C.ar    1  UNL1        0.0747
      7 C          19.0580   17.2291   -2.8383 C.ar    1  UNL1        0.0211
      8 C          19.0136   16.8284   -1.3936 C.ar    1  UNL1        0.0559
      9 C          18.5092   15.4695   -1.0074 C.ar    1  UNL1        0.0189
     10 C          18.0493   14.5114   -2.0659 C.ar    1  UNL1        0.0461
     11 C          18.0938   14.9122   -3.5106 C.ar    1  UNL1        0.0308
     12 N          17.5450   13.1526   -1.6797 N.pl3   1  UNL1       -0.3326
     13 H          17.8698   12.7229   -0.8556 H       1  UNL1        0.1468
     14 C          16.5457   12.4485   -2.5489 C.3     1  UNL1        0.0871
     15 C          15.3076   11.8582   -1.9417 C.3     1  UNL1        0.0229
     16 N          18.6426   16.6718   -5.3417 N.pl3   1  UNL1       -0.1729
     17 C          17.3830   16.6825   -6.1561 C.ar    1  UNL1        0.0733
     18 C          16.1271   17.2735   -5.5874 C.ar    1  UNL1        0.0165
     19 C          14.8675   17.2842   -6.4019 C.ar    1  UNL1        0.0013
     20 C          14.8638   16.7039   -7.7850 C.ar    1  UNL1        0.0001
     21 C          16.1197   16.1130   -8.3538 C.ar    1  UNL1        0.0013
     22 C          17.3793   16.1022   -7.5394 C.ar    1  UNL1        0.0165
     23 S          19.9466   17.0618   -5.9721 S.O2    1  UNL1        0.0623
     24 O          20.4047   15.6349   -5.9072 O.2     1  UNL1       -0.1539
     25 O          19.4885   18.4887   -6.0369 O.2     1  UNL1       -0.1539
     26 C          21.2507   17.4518   -6.6024 C.3     1  UNL1        0.2002
     27 C          21.4192   20.4522    0.6581 C.3     1  UNL1        0.1839
     28 O          21.9000   21.0836    1.9310 O.3     1  UNL1       -0.3775
     29 H          22.8480   21.2349    2.0694 H       1  UNL1        0.2106
     30 C          22.4046   20.0547   -0.4007 C.3     1  UNL1        0.1338
     31 N          23.8714   20.0284   -0.0882 N.4     1  UNL1        0.2586
     32 H          24.2429   19.3314    0.5571 H       1  UNL1        0.2039
     33 H          24.8689   20.0105    0.1243 H       1  UNL1        0.2039
     34 C          24.7919   21.0272   -0.7248 C.3     1  UNL1        0.1298
     35 C          25.5159   20.6791   -1.9915 C.3     1  UNL1        0.0710
     36 C          24.9884   22.3741   -0.0946 C.2     1  UNL1        0.2719
     37 O          23.9266   22.9474    0.7965 O.2     1  UNL1       -0.2690
     38 N          26.2467   23.1478   -0.3554 N.am    1  UNL1       -0.3014
     39 H          26.9436   22.7716   -0.9402 H       1  UNL1        0.1496
     40 C          26.4432   24.4948    0.2748 C.3     1  UNL1        0.0717
     41 C          26.3846   24.6406    1.7665 C.3     1  UNL1        0.0196
     42 C          26.5811   25.9875    2.3968 C.3     1  UNL1        0.0017
     43 C          26.8362   27.1886    1.5353 C.3     1  UNL1        0.0001
     44 C          26.8949   27.0428    0.0436 C.3     1  UNL1        0.0017
     45 C          26.6984   25.6959   -0.5867 C.3     1  UNL1        0.0196
     46 C          18.9469   20.9422    1.2886 C.3     1  UNL1        0.0486
     47 C          18.7701   22.4242    1.1393 C.ar    1  UNL1       -0.0204
     48 C          18.4501   23.2660    2.3390 C.ar    1  UNL1       -0.0042
     49 C          18.2732   24.7481    2.1897 C.ar    1  UNL1       -0.0003
     50 C          18.4165   25.3883    0.8408 C.ar    1  UNL1       -0.0000
     51 C          18.7365   24.5466   -0.3588 C.ar    1  UNL1       -0.0003
     52 C          18.9133   23.0646   -0.2096 C.ar    1  UNL1       -0.0042
@<TRIPOS>UNITY_ATOM_ATTR
31 1
charge 1
@<TRIPOS>BOND
     1    23    24    2
     2    23    25    2
     3    23    16    1
     4    16     6    1
     5     6     7   ar
     6     7     8   ar
     7     8     9   ar
     8     9    10   ar
     9    10    12    1
    10    12    14    1
    11    14    15    1
    12    10    11   ar
    13     8     2    1
    14     2     3    2
    15     2     4   am
    16     4     1    1
    17     1    27    1
    18    27    28    1
    19    27    30    1
    20    30    31    1
    21    31    34    1
    22    34    36    1
    23    36    37    2
    24    36    38   am
    25    38    40    1
    26    40    41    1
    27    41    42    1
    28    42    43    1
    29    43    44    1
    30    44    45    1
    31    34    35    1
    32     1    46    1
    33    46    47    1
    34    47    48   ar
    35    48    49   ar
    36    49    50   ar
    37    50    51   ar
    38    51    52   ar
    39    16    17    1
    40    17    18   ar
    41    18    19   ar
    42    19    20   ar
    43    20    21   ar
    44    21    22   ar
    45    23    26    1
    46    11     6   ar
    47    45    40    1
    48    52    47   ar
    49    22    17   ar
    50    12    13    1
    51     4     5    1
    52    28    29    1
    53    31    32    1
    54    31    33    1
    55    38    39    1
@<TRIPOS>MOLECULE
*****
 52 55 0 0 0
SMALL
GASTEIGER

@<TRIPOS>ATOM
      1 C          26.4653   27.3054   -0.0219 C.3     1  UNL1        0.1089
      2 C          24.8045   28.7481   -1.4040 C.2     1  UNL1        0.2460
      3 O          24.0565   27.5093   -1.7985 O.2     1  UNL1       -0.2701
      4 N          26.0089   28.6462   -0.5158 N.am    1  UNL1       -0.2995
      5 H          26.4999   29.4593   -0.2569 H       1  UNL1        0.1498
      6 C          23.3916   32.4567   -1.4195 C.ar    1  UNL1        0.0747
      7 C          23.8479   31.1158   -0.9256 C.ar    1  UNL1        0.0211
      8 C          24.3482   30.0890   -1.8979 C.ar    1  UNL1        0.0559
      9 C          24.3922   30.4030   -3.3640 C.ar    1  UNL1        0.0189
     10 C          23.9359   31.7438   -3.8579 C.ar    1  UNL1        0.0461
     11 C          23.4356   32.7707   -2.8856 C.ar    1  UNL1        0.0308
     12 N          23.9799   32.0578   -5.3240 N.pl3   1  UNL1       -0.3326
     13 H          23.7237   32.9531   -5.6435 H       1  UNL1        0.1468
     14 C          24.4142   31.0078   -6.3032 C.3     1  UNL1        0.0871
     15 C          23.5052   30.6093   -7.4279 C.3     1  UNL1        0.0229
     16 N          22.8913   33.4836   -0.4473 N.pl3   1  UNL1       -0.1729
     17 C          23.4187   34.8867   -0.5007 C.ar    1  UNL1        0.0733
     18 C          22.4785   36.0472   -0.3622 C.ar    1  UNL1        0.0165
     19 C          23.0061   37.4504   -0.4157 C.ar    1  UNL1        0.0013
     20 C          24.4738   37.6931   -0.6076 C.ar    1  UNL1        0.0001
     21 C          25.4140   36.5326   -0.7461 C.ar    1  UNL1        0.0013
     22 C          24.8865   35.1294   -0.6926 C.ar    1  UNL1        0.0165
     23 S          21.8634   33.1072    0.5784 S.O2    1  UNL1        0.0623
     24 O          22.8815   33.2882    1.6650 O.2     1  UNL1       -0.1539
     25 O          20.8454   32.9263   -0.5082 O.2     1  UNL1       -0.1539
     26 C          20.8356   32.7309    1.6040 C.3     1  UNL1        0.2002
     27 C          27.2621   26.4065   -0.9205 C.3     1  UNL1        0.1839
     28 O          28.2349   26.9952   -1.8988 O.3     1  UNL1       -0.3775
     29 H          28.7501   26.4140   -2.4798 H       1  UNL1        0.2106
     30 C          27.0860   24.9191   -0.8407 C.3     1  UNL1        0.1338
     31 N          26.1053   24.2305   -1.7429 N.4     1  UNL1        0.2586
     32 H          25.4451   24.7802   -2.2927 H       1  UNL1        0.2039
     33 H          25.4384   23.7622   -2.3564 H       1  UNL1        0.2039
     34 C          26.0955   22.7334   -1.8366 C.3     1  UNL1        0.1298
     35 C          26.7445   22.0507   -3.0040 C.3     1  UNL1        0.0710
     36 C          25.4368   21.9190   -0.7629 C.2     1  UNL1        0.2719
     37 O          25.8366   22.1046    0.6709 O.2     1  UNL1       -0.2690
     38 N          24.3782   20.9192   -1.1229 N.am    1  UNL1       -0.3014
     39 H          24.1158   20.7974   -2.0640 H       1  UNL1        0.1496
     40 C          23.7194   20.1048   -0.0492 C.3     1  UNL1        0.0717
     41 C          22.3986   20.5364    0.5155 C.3     1  UNL1        0.0196
     42 C          21.7398   19.7221    1.5892 C.3     1  UNL1        0.0017
     43 C          22.4019   18.4761    2.0982 C.3     1  UNL1        0.0001
     44 C          23.7228   18.0445    1.5335 C.3     1  UNL1        0.0017
     45 C          24.3815   18.8588    0.4598 C.3     1  UNL1        0.0196
     46 C          26.1249   26.8633    1.3705 C.3     1  UNL1        0.0486
     47 C          24.7044   26.5415    1.7290 C.ar    1  UNL1       -0.0204
     48 C          24.2401   25.1152    1.7470 C.ar    1  UNL1       -0.0042
     49 C          22.8196   24.7934    2.1056 C.ar    1  UNL1       -0.0003
     50 C          21.8634   25.8978    2.4461 C.ar    1  UNL1       -0.0000
     51 C          22.3277   27.3240    2.4281 C.ar    1  UNL1       -0.0003
     52 C          23.7481   27.6459    2.0695 C.ar    1  UNL1       -0.0042
@<TRIPOS>UNITY_ATOM_ATTR
31 1
charge 1
@<TRIPOS>BOND
     1    23    24    2
     2    23    25    2
     3    23    16    1
     4    16     6    1
     5     6     7   ar
     6     7     8   ar
     7     8     9   ar
     8     9    10   ar
     9    10    12    1
    10    12    14    1
    11    14    15    1
    12    10    11   ar
    13     8     2    1
    14     2     3    2
    15     2     4   am
    16     4     1    1
    17     1    27    1
    18    27    28    1
    19    27    30    1
    20    30    31    1
    21    31    34    1
    22    34    36    1
    23    36    37    2
    24    36    38   am
    25    38    40    1
    26    40    41    1
    27    41    42    1
    28    42    43    1
    29    43    44    1
    30    44    45    1
    31    34    35    1
    32     1    46    1
    33    46    47    1
    34    47    48   ar
    35    48    49   ar
    36    49    50   ar
    37    50    51   ar
    38    51    52   ar
    39    16    17    1
    40    17    18   ar
    41    18    19   ar
    42    19    20   ar
    43    20    21   ar
    44    21    22   ar
    45    23    26    1
    46    11     6   ar
    47    45    40    1
    48    52    47   ar
    49    22    17   ar
    50    12    13    1
    51     4     5    1
    52    28    29    1
    53    31    32    1
    54    31    33    1
    55    38    39    1
@<TRIPOS>MOLECULE
*****
 43 45 0 0 0
SMALL
GASTEIGER

@<TRIPOS>ATOM
      1 S          23.6088   24.9437    1.6127 S.O     1  UNL1        0.0477
      2 O          24.5098   23.8291    1.1701 O.2     1  UNL1       -0.2557
      3 C          22.1203   24.7911    1.5087 C.3     1  UNL1        0.0949
      4 C          21.2193   25.9057    1.9513 C.3     1  UNL1        0.0504
      5 C          21.8068   27.1730    2.4977 C.3     1  UNL1        0.1616
      6 O          20.9059   28.2877    2.9402 O.3     1  UNL1       -0.3788
      7 C          23.2954   27.3257    2.6016 C.3     1  UNL1        0.0935
      8 C          24.1964   26.2110    2.1591 C.3     1  UNL1        0.1488
      9 H          21.2859   29.1072    3.2936 H       1  UNL1        0.2106
     10 N          23.8831   28.5930    3.1481 N.4     1  UNL1        0.2561
     11 H          23.8052   28.8038    4.1431 H       1  UNL1        0.2038
     12 H          24.2826   29.4548    3.5197 H       1  UNL1        0.2038
     13 C          24.5852   29.5505    2.2314 C.3     1  UNL1        0.1296
     14 C          23.8612   30.1254    1.0501 C.ar    1  UNL1        0.0322
     15 C          22.7141   31.0688    1.2600 C.ar    1  UNL1       -0.0029
     16 C          21.9902   31.6437    0.0787 C.ar    1  UNL1       -0.0229
     17 C          22.4134   31.2752   -1.3124 C.ar    1  UNL1       -0.0043
     18 C          23.5604   30.3318   -1.5222 C.ar    1  UNL1       -0.0004
     19 C          24.2844   29.7569   -0.3409 C.ar    1  UNL1        0.0014
     20 C          20.8430   32.5872    0.2885 C.3     1  UNL1        0.0189
     21 C          20.5599   32.5704   -1.1844 C.3     1  UNL1        0.0044
     22 C          21.1261   32.6040    1.7614 C.3     1  UNL1        0.0044
     23 C          19.6959   33.5306    0.4982 C.3     1  UNL1        0.0044
     24 C          19.7306   25.7530    1.8473 C.3     1  UNL1        0.0301
     25 C          19.1461   24.5702    1.1337 C.ar    1  UNL1       -0.0167
     26 C          18.7952   23.3297    1.9008 C.ar    1  UNL1        0.0341
     27 C          18.2106   22.1469    1.1872 C.ar    1  UNL1        0.1535
     28 C          17.9770   22.2045   -0.2934 C.ar    1  UNL1        0.1037
     29 N          17.3924   21.0216   -1.0070 N.pl3   1  UNL1       -0.3529
     30 C          18.3279   23.4448   -1.0604 C.ar    1  UNL1        0.1556
     31 F          18.0943   23.5024   -2.5410 F       1  UNL1       -0.2028
     32 C          18.9125   24.6277   -0.3468 C.ar    1  UNL1        0.0268
     33 H          17.1621   20.2075   -0.5036 H       1  UNL1        0.1425
     34 H          17.2391   21.0594   -1.9787 H       1  UNL1        0.1425
     35 O          17.8597   20.9065    1.9542 O.3     1  UNL1       -0.4665
     36 C          18.9465   20.0039    2.4585 C.3     1  UNL1        0.2891
     37 C          19.0735   19.7315    3.9281 C.3     1  UNL1        0.4366
     38 F          19.2005   19.4591    5.3977 F       1  UNL1       -0.1663
     39 F          17.6667   20.2077    4.1379 F       1  UNL1       -0.1663
     40 F          20.4803   19.2554    3.7182 F       1  UNL1       -0.1663
     41 C          19.9062   19.3737    1.4933 C.3     1  UNL1        0.1945
     42 O          19.4512   19.0146    0.1098 O.3     1  UNL1       -0.3469
     43 C          20.4356   18.4820   -0.8889 C.3     1  UNL1        0.1743
@<TRIPOS>UNITY_ATOM_ATTR
10 1
charge 1
@<TRIPOS>BOND
     1     1     2    2
     2     1     3    1
     3     3     4    1
     4     4    24    1
     5    24    25    1
     6    25    26   ar
     7    26    27   ar
     8    27    35    1
     9    35    36    1
    10    36    41    1
    11    41    42    1
    12    42    43    1
    13    36    37    1
    14    37    38    1
    15    37    39    1
    16    37    40    1
    17    27    28   ar
    18    28    29    1
    19    28    30   ar
    20    30    31    1
    21    30    32   ar
    22     4     5    1
    23     5     6    1
    24     5     7    1
    25     7    10    1
    26    10    13    1
    27    13    14    1
    28    14    15   ar
    29    15    16   ar
    30    16    17   ar
    31    17    18   ar
    32    18    19   ar
    33    16    20    1
    34    20    21    1
    35    20    22    1
    36    20    23    1
    37     7     8    1
    38     8     1    1
    39    32    25   ar
    40    19    14   ar
    41    29    33    1
    42    29    34    1
    43     6     9    1
    44    10    11    1
    45    10    12    1
@<TRIPOS>MOLECULE
*****
 43 45 0 0 0
SMALL
GASTEIGER

@<TRIPOS>ATOM
      1 S          25.3326   17.4205    0.3143 S.O     1  UNL1        0.0477
      2 O          26.2150   16.2088    0.2567 O.2     1  UNL1       -0.2557
      3 C          25.4637   18.4938   -0.7253 C.3     1  UNL1        0.0949
      4 C          24.5813   19.7055   -0.6678 C.3     1  UNL1        0.0504
      5 C          23.5679   19.8438    0.4294 C.3     1  UNL1        0.1616
      6 O          22.6855   21.0555    0.4869 O.3     1  UNL1       -0.3788
      7 C          23.4368   18.7705    1.4690 C.3     1  UNL1        0.0935
      8 C          24.3192   17.5589    1.4114 C.3     1  UNL1        0.1488
      9 H          22.0302   21.1449    1.1964 H       1  UNL1        0.2106
     10 N          22.4234   18.9088    2.5662 N.4     1  UNL1        0.2561
     11 H          22.6761   19.3736    3.4383 H       1  UNL1        0.2038
     12 H          21.7342   19.0029    3.3123 H       1  UNL1        0.2038
     13 C          21.0383   18.3637    2.3809 C.3     1  UNL1        0.1296
     14 C          19.8637   19.2961    2.3466 C.ar    1  UNL1        0.0322
     15 C          19.5867   20.1085    1.1165 C.ar    1  UNL1       -0.0029
     16 C          18.4121   21.0408    1.0823 C.ar    1  UNL1       -0.0229
     17 C          17.5145   21.1606    2.2781 C.ar    1  UNL1       -0.0043
     18 C          17.7915   20.3481    3.5082 C.ar    1  UNL1       -0.0004
     19 C          18.9661   19.4159    3.5425 C.ar    1  UNL1        0.0014
     20 C          18.1351   21.8533   -0.1478 C.3     1  UNL1        0.0189
     21 C          17.0929   22.6306    0.6003 C.3     1  UNL1        0.0044
     22 C          19.1772   21.0760   -0.8960 C.3     1  UNL1        0.0044
     23 C          17.8580   22.6658   -1.3779 C.3     1  UNL1        0.0044
     24 C          24.7124   20.7788   -1.7075 C.3     1  UNL1        0.0301
     25 C          25.6152   21.9519   -1.4646 C.ar    1  UNL1       -0.0167
     26 C          25.5747   22.6695   -0.1480 C.ar    1  UNL1        0.0341
     27 C          26.4775   23.8426    0.0948 C.ar    1  UNL1        0.1535
     28 C          27.4207   24.2980   -0.9790 C.ar    1  UNL1        0.1037
     29 N          28.3234   25.4711   -0.7362 N.pl3   1  UNL1       -0.3529
     30 C          27.4611   23.5804   -2.2956 C.ar    1  UNL1        0.1556
     31 F          28.4043   24.0358   -3.3694 F       1  UNL1       -0.2028
     32 C          26.5583   22.4073   -2.5384 C.ar    1  UNL1        0.0268
     33 H          28.2969   25.9421    0.1279 H       1  UNL1        0.1425
     34 H          28.9425   25.7700   -1.4410 H       1  UNL1        0.1425
     35 O          26.4370   24.5602    1.4113 O.3     1  UNL1       -0.4665
     36 C          25.5811   25.7812    1.5740 C.3     1  UNL1        0.2891
     37 C          26.2198   27.1277    1.7438 C.3     1  UNL1        0.4366
     38 F          26.8586   28.4743    1.9136 F       1  UNL1       -0.1663
     39 F          25.8063   27.4994    0.3507 F       1  UNL1       -0.1663
     40 F          26.6333   26.7560    3.1369 F       1  UNL1       -0.1663
     41 C          24.0864   25.6556    1.5670 C.3     1  UNL1        0.1945
     42 O          23.2771   26.2685    2.6713 O.3     1  UNL1       -0.3469
     43 C          22.7687   27.6735    2.5377 C.3     1  UNL1        0.1743
@<TRIPOS>UNITY_ATOM_ATTR
10 1
charge 1
@<TRIPOS>BOND
     1     1     2    2
     2     1     3    1
     3     3     4    1
     4     4    24    1
     5    24    25    1
     6    25    26   ar
     7    26    27   ar
     8    27    35    1
     9    35    36    1
    10    36    41    1
    11    41    42    1
    12    42    43    1
    13    36    37    1
    14    37    38    1
    15    37    39    1
    16    37    40    1
    17    27    28   ar
    18    28    29    1
    19    28    30   ar
    20    30    31    1
    21    30    32   ar
    22     4     5    1
    23     5     6    1
    24     5     7    1
    25     7    10    1
    26    10    13    1
    27    13    14    1
    28    14    15   ar
    29    15    16   ar
    30    16    17   ar
    31    17    18   ar
    32    18    19   ar
    33    16    20    1
    34    20    21    1
    35    20    22    1
    36    20    23    1
    37     7     8    1
    38     8     1    1
    39    32    25   ar
    40    19    14   ar
    41    29    33    1
    42    29    34    1
    43     6     9    1
    44    10    11    1
    45    10    12    1
@<TRIPOS>MOLECULE
*****
 43 45 0 0 0
SMALL
GASTEIGER

@<TRIPOS>ATOM
      1 S          25.4777   17.5889   -0.3096 S.O     1  UNL1        0.0477
      2 O          26.6869   17.7888   -1.1744 O.2     1  UNL1       -0.2557
      3 C          24.4596   18.6827   -0.1795 C.3     1  UNL1        0.0949
      4 C          23.2504   18.4828    0.6853 C.3     1  UNL1        0.0504
      5 C          23.0593   17.1892    1.4200 C.3     1  UNL1        0.1616
      6 O          21.8501   16.9893    2.2848 O.3     1  UNL1       -0.3788
      7 C          24.0775   16.0954    1.2899 C.3     1  UNL1        0.0935
      8 C          25.2867   16.2952    0.4251 C.3     1  UNL1        0.1488
      9 H          21.7266   16.1527    2.7599 H       1  UNL1        0.2106
     10 N          23.8864   14.8016    2.0247 N.4     1  UNL1        0.2561
     11 H          24.1137   14.7404    3.0171 H       1  UNL1        0.2038
     12 H          23.7566   13.9219    2.5243 H       1  UNL1        0.2038
     13 C          23.3612   13.5980    1.2999 C.3     1  UNL1        0.1296
     14 C          22.9287   12.3869    2.0722 C.ar    1  UNL1        0.0322
     15 C          21.4859   11.9767    2.0777 C.ar    1  UNL1       -0.0029
     16 C          21.0535   10.7658    2.8500 C.ar    1  UNL1       -0.0229
     17 C          22.0638    9.9650    3.6169 C.ar    1  UNL1       -0.0043
     18 C          23.5066   10.3753    3.6114 C.ar    1  UNL1       -0.0004
     19 C          23.9390   11.5862    2.8391 C.ar    1  UNL1        0.0014
     20 C          19.6106   10.3555    2.8555 C.3     1  UNL1        0.0189
     21 C          19.9927    9.0197    3.4208 C.3     1  UNL1        0.0044
     22 C          19.2286   11.6913    2.2902 C.3     1  UNL1        0.0044
     23 C          18.1679    9.9452    2.8611 C.3     1  UNL1        0.0044
     24 C          22.2322   19.5767    0.8153 C.3     1  UNL1        0.0301
     25 C          20.9948   19.5542   -0.0322 C.ar    1  UNL1       -0.0167
     26 C          20.1853   20.8043   -0.2109 C.ar    1  UNL1        0.0341
     27 C          18.9479   20.7818   -1.0584 C.ar    1  UNL1        0.1535
     28 C          18.5201   19.5091   -1.7274 C.ar    1  UNL1        0.1037
     29 N          17.2827   19.4866   -2.5749 N.pl3   1  UNL1       -0.3529
     30 C          19.3296   18.2591   -1.5487 C.ar    1  UNL1        0.1556
     31 F          18.9018   16.9864   -2.2176 F       1  UNL1       -0.2028
     32 C          20.5670   18.2816   -0.7012 C.ar    1  UNL1        0.0268
     33 H          16.7513   20.3070   -2.6922 H       1  UNL1        0.1425
     34 H          17.0019   18.6513   -3.0139 H       1  UNL1        0.1425
     35 O          18.1383   22.0318   -1.2371 O.3     1  UNL1       -0.4665
     36 C          17.8842   22.9345   -0.0664 C.3     1  UNL1        0.2891
     37 C          18.5921   24.2533    0.0314 C.3     1  UNL1        0.4366
     38 F          19.3001   25.5721    0.1292 F       1  UNL1       -0.1663
     39 F          18.2348   24.3372    1.4858 F       1  UNL1       -0.1663
     40 F          18.9494   24.1693   -1.4229 F       1  UNL1       -0.1663
     41 C          16.9221   22.5184    1.0066 C.3     1  UNL1        0.1945
     42 O          17.0983   21.2014    1.7024 O.3     1  UNL1       -0.3469
     43 C          18.1360   21.0530    2.7755 C.3     1  UNL1        0.1743
@<TRIPOS>UNITY_ATOM_ATTR
10 1
charge 1
@<TRIPOS>BOND
     1     1     2    2
     2     1     3    1
     3     3     4    1
     4     4    24    1
     5    24    25    1
     6    25    26   ar
     7    26    27   ar
     8    27    35    1
     9    35    36    1
    10    36    41    1
    11    41    42    1
    12    42    43    1
    13    36    37    1
    14    37    38    1
    15    37    39    1
    16    37    40    1
    17    27    28   ar
    18    28    29    1
    19    28    30   ar
    20    30    31    1
    21    30    32   ar
    22     4     5    1
    23     5     6    1
    24     5     7    1
    25     7    10    1
    26    10    13    1
    27    13    14    1
    28    14    15   ar
    29    15    16   ar
    30    16    17   ar
    31    17    18   ar
    32    18    19   ar
    33    16    20    1
    34    20    21    1
    35    20    22    1
    36    20    23    1
    37     7     8    1
    38     8     1    1
    39    32    25   ar
    40    19    14   ar
    41    29    33    1
    42    29    34    1
    43     6     9    1
    44    10    11    1
    45    10    12    1
@<TRIPOS>MOLECULE
*****
 43 45 0 0 0
SMALL
GASTEIGER

@<TRIPOS>ATOM
      1 S          27.3060   25.9886    1.0208 S.O     1  UNL1        0.0477
      2 O          28.5278   25.1846    0.6878 O.2     1  UNL1       -0.2557
      3 C          27.2622   27.4535    0.7016 C.3     1  UNL1        0.0949
      4 C          26.0404   28.2575    1.0346 C.3     1  UNL1        0.0504
      5 C          24.8624   27.5965    1.6867 C.3     1  UNL1        0.1616
      6 O          23.6406   28.4004    2.0197 O.3     1  UNL1       -0.3788
      7 C          24.9062   26.1315    2.0059 C.3     1  UNL1        0.0935
      8 C          26.1280   25.3276    1.6729 C.3     1  UNL1        0.1488
      9 H          22.8788   27.9730    2.4414 H       1  UNL1        0.2106
     10 N          23.7281   25.4704    2.6580 N.4     1  UNL1        0.2561
     11 H          23.5477   25.6148    3.6515 H       1  UNL1        0.2038
     12 H          22.9271   25.0209    3.1015 H       1  UNL1        0.2038
     13 C          22.8155   24.5970    1.8492 C.3     1  UNL1        0.1296
     14 C          21.3574   24.9322    1.7414 C.ar    1  UNL1        0.0322
     15 C          20.4028   23.9432    1.1410 C.ar    1  UNL1       -0.0029
     16 C          18.9448   24.2785    1.0332 C.ar    1  UNL1       -0.0229
     17 C          18.4413   25.6028    1.5259 C.ar    1  UNL1       -0.0043
     18 C          19.3959   26.5918    2.1263 C.ar    1  UNL1       -0.0004
     19 C          20.8539   26.2566    2.2341 C.ar    1  UNL1        0.0014
     20 C          17.9901   23.2895    0.4327 C.3     1  UNL1        0.0189
     21 C          17.4387   22.9941    1.7960 C.3     1  UNL1        0.0044
     22 C          18.5415   23.5848   -0.9306 C.3     1  UNL1        0.0044
     23 C          17.0355   22.3005   -0.1676 C.3     1  UNL1        0.0044
     24 C          25.9967   29.7225    0.7154 C.3     1  UNL1        0.0301
     25 C          25.3454   30.1952   -0.5505 C.ar    1  UNL1       -0.0167
     26 C          24.1661   31.1200   -0.4872 C.ar    1  UNL1        0.0341
     27 C          23.5148   31.5926   -1.7531 C.ar    1  UNL1        0.1535
     28 C          24.0430   31.1405   -3.0823 C.ar    1  UNL1        0.1037
     29 N          23.3917   31.6131   -4.3482 N.pl3   1  UNL1       -0.3529
     30 C          25.2223   30.2157   -3.1455 C.ar    1  UNL1        0.1556
     31 F          25.7504   29.7636   -4.4748 F       1  UNL1       -0.2028
     32 C          25.8735   29.7431   -1.8796 C.ar    1  UNL1        0.0268
     33 H          22.6177   32.2201   -4.3067 H       1  UNL1        0.1425
     34 H          23.7383   31.3164   -5.2206 H       1  UNL1        0.1425
     35 O          22.3355   32.5174   -1.6898 O.3     1  UNL1       -0.4665
     36 C          22.3702   33.7166   -0.7894 C.3     1  UNL1        0.2891
     37 C          21.7715   33.6409    0.5838 C.3     1  UNL1        0.4366
     38 F          21.1728   33.5652    1.9571 F       1  UNL1       -0.1663
     39 F          20.4598   33.2221   -0.0112 F       1  UNL1       -0.1663
     40 F          23.0832   34.0596    1.1788 F       1  UNL1       -0.1663
     41 C          23.0036   34.9914   -1.2621 C.3     1  UNL1        0.1945
     42 O          22.2872   36.2968   -1.0816 O.3     1  UNL1       -0.3469
     43 C          22.8973   37.3768   -0.2381 C.3     1  UNL1        0.1743
@<TRIPOS>UNITY_ATOM_ATTR
10 1
charge 1
@<TRIPOS>BOND
     1     1     2    2
     2     1     3    1
     3     3     4    1
     4     4    24    1
     5    24    25    1
     6    25    26   ar
     7    26    27   ar
     8    27    35    1
     9    35    36    1
    10    36    41    1
    11    41    42    1
    12    42    43    1
    13    36    37    1
    14    37    38    1
    15    37    39    1
    16    37    40    1
    17    27    28   ar
    18    28    29    1
    19    28    30   ar
    20    30    31    1
    21    30    32   ar
    22     4     5    1
    23     5     6    1
    24     5     7    1
    25     7    10    1
    26    10    13    1
    27    13    14    1
    28    14    15   ar
    29    15    16   ar
    30    16    17   ar
    31    17    18   ar
    32    18    19   ar
    33    16    20    1
    34    20    21    1
    35    20    22    1
    36    20    23    1
    37     7     8    1
    38     8     1    1
    39    32    25   ar
    40    19    14   ar
    41    29    33    1
    42    29    34    1
    43     6     9    1
    44    10    11    1
    45    10    12    1
@<TRIPOS>MOLECULE
*****
 43 45 0 0 0
SMALL
GASTEIGER

@<TRIPOS>ATOM
      1 S          18.1056   21.6192    1.9905 S.O     1  UNL1        0.0477
      2 O          17.9221   20.8860    3.2862 O.2     1  UNL1       -0.2557
      3 C          18.4186   23.0861    1.9967 C.3     1  UNL1        0.0949
      4 C          18.6021   23.8193    0.7010 C.3     1  UNL1        0.0504
      5 C          18.4726   23.0855   -0.6008 C.3     1  UNL1        0.1616
      6 O          18.6561   23.8187   -1.8965 O.3     1  UNL1       -0.3788
      7 C          18.1597   21.6186   -0.6069 C.3     1  UNL1        0.0935
      8 C          17.9761   20.8854    0.6887 C.3     1  UNL1        0.1488
      9 H          18.5724   23.3441   -2.7384 H       1  UNL1        0.2106
     10 N          18.0302   20.8847   -1.9088 N.4     1  UNL1        0.2561
     11 H          17.4128   21.2434   -2.6372 H       1  UNL1        0.2038
     12 H          17.9421   20.3857   -2.7940 H       1  UNL1        0.2038
     13 C          18.8086   19.6235   -2.1394 C.3     1  UNL1        0.1296
     14 C          18.4658   18.7313   -3.2956 C.ar    1  UNL1        0.0322
     15 C          17.3245   17.7644   -3.1841 C.ar    1  UNL1       -0.0029
     16 C          16.9818   16.8723   -4.3402 C.ar    1  UNL1       -0.0229
     17 C          17.7804   16.9471   -5.6078 C.ar    1  UNL1       -0.0043
     18 C          18.9217   17.9140   -5.7192 C.ar    1  UNL1       -0.0004
     19 C          19.2644   18.8061   -4.5631 C.ar    1  UNL1        0.0014
     20 C          15.8404   15.9053   -4.2289 C.3     1  UNL1        0.0189
     21 C          16.4711   15.3015   -3.0092 C.3     1  UNL1        0.0044
     22 C          15.2098   16.5091   -5.4485 C.3     1  UNL1        0.0044
     23 C          14.6992   14.9384   -4.1174 C.3     1  UNL1        0.0044
     24 C          18.9150   25.2863    0.7072 C.3     1  UNL1        0.0301
     25 C          20.2553   25.7653    1.1808 C.ar    1  UNL1       -0.0167
     26 C          21.4615   25.6068    0.3031 C.ar    1  UNL1        0.0341
     27 C          22.8017   26.0857    0.7767 C.ar    1  UNL1        0.1535
     28 C          22.9358   26.7231    2.1280 C.ar    1  UNL1        0.1037
     29 N          24.2761   27.2021    2.6016 N.pl3   1  UNL1       -0.3529
     30 C          21.7297   26.8816    3.0055 C.ar    1  UNL1        0.1556
     31 F          21.8639   27.5190    4.3568 F       1  UNL1       -0.2028
     32 C          20.3895   26.4026    2.5319 C.ar    1  UNL1        0.0268
     33 H          25.0677   27.0981    2.0256 H       1  UNL1        0.1425
     34 H          24.3642   27.6204    3.4884 H       1  UNL1        0.1425
     35 O          24.0078   25.9273   -0.1008 O.3     1  UNL1       -0.4665
     36 C          25.1387   25.0416    0.3313 C.3     1  UNL1        0.2891
     37 C          26.5056   25.6211    0.5452 C.3     1  UNL1        0.4366
     38 F          27.8725   26.2006    0.7591 F       1  UNL1       -0.1663
     39 F          26.6740   24.7716    1.7699 F       1  UNL1       -0.1663
     40 F          26.3371   26.4706   -0.6794 F       1  UNL1       -0.1663
     41 C          24.9026   23.5765    0.5496 C.3     1  UNL1        0.1945
     42 O          25.2179   22.5955   -0.5405 O.3     1  UNL1       -0.3469
     43 C          24.6768   21.1981   -0.4714 C.3     1  UNL1        0.1743
@<TRIPOS>UNITY_ATOM_ATTR
10 1
charge 1
@<TRIPOS>BOND
     1     1     2    2
     2     1     3    1
     3     3     4    1
     4     4    24    1
     5    24    25    1
     6    25    26   ar
     7    26    27   ar
     8    27    35    1
     9    35    36    1
    10    36    41    1
    11    41    42    1
    12    42    43    1
    13    36    37    1
    14    37    38    1
    15    37    39    1
    16    37    40    1
    17    27    28   ar
    18    28    29    1
    19    28    30   ar
    20    30    31    1
    21    30    32   ar
    22     4     5    1
    23     5     6    1
    24     5     7    1
    25     7    10    1
    26    10    13    1
    27    13    14    1
    28    14    15   ar
    29    15    16   ar
    30    16    17   ar
    31    17    18   ar
    32    18    19   ar
    33    16    20    1
    34    20    21    1
    35    20    22    1
    36    20    23    1
    37     7     8    1
    38     8     1    1
    39    32    25   ar
    40    19    14   ar
    41    29    33    1
    42    29    34    1
    43     6     9    1
    44    10    11    1
    45    10    12    1
@<TRIPOS>MOLECULE
*****
 43 45 0 0 0
SMALL
GASTEIGER

@<TRIPOS>ATOM
      1 S          25.5063   18.5394   -2.2014 S.O     1  UNL1        0.0477
      2 O          26.2611   17.5196   -3.0015 O.2     1  UNL1       -0.2557
      3 C          24.2627   18.1424   -1.4626 C.3     1  UNL1        0.0949
      4 C          23.5078   19.1622   -0.6625 C.3     1  UNL1        0.0504
      5 C          23.9966   20.5790   -0.6012 C.3     1  UNL1        0.1616
      6 O          23.2417   21.5988    0.1990 O.3     1  UNL1       -0.3788
      7 C          25.2401   20.9760   -1.3400 C.3     1  UNL1        0.0935
      8 C          25.9950   19.9562   -2.1401 C.3     1  UNL1        0.1488
      9 H          23.5578   22.5150    0.2386 H       1  UNL1        0.2106
     10 N          25.7289   22.3928   -1.2787 N.4     1  UNL1        0.2561
     11 H          25.9090   22.9079   -2.1405 H       1  UNL1        0.2038
     12 H          26.0613   23.3563   -1.2370 H       1  UNL1        0.2038
     13 C          25.9528   23.0522    0.0499 C.3     1  UNL1        0.1296
     14 C          25.3986   24.4215    0.3105 C.ar    1  UNL1        0.0322
     15 C          25.7719   25.5648   -0.5859 C.ar    1  UNL1       -0.0029
     16 C          25.2177   26.9341   -0.3253 C.ar    1  UNL1       -0.0229
     17 C          24.2902   27.1601    0.8317 C.ar    1  UNL1       -0.0043
     18 C          23.9169   26.0168    1.7281 C.ar    1  UNL1       -0.0004
     19 C          24.4711   24.6476    1.4675 C.ar    1  UNL1        0.0014
     20 C          25.5910   28.0774   -1.2217 C.3     1  UNL1        0.0189
     21 C          24.1382   28.3655   -1.4592 C.3     1  UNL1        0.0044
     22 C          27.0438   27.7893   -0.9843 C.3     1  UNL1        0.0044
     23 C          25.9642   29.2207   -2.1181 C.3     1  UNL1        0.0044
     24 C          22.2642   18.7652    0.0764 C.3     1  UNL1        0.0301
     25 C          20.9187   18.9768   -0.5520 C.ar    1  UNL1       -0.0167
     26 C          20.3762   20.3660   -0.7128 C.ar    1  UNL1        0.0341
     27 C          19.0307   20.5777   -1.3411 C.ar    1  UNL1        0.1535
     28 C          18.2277   19.4001   -1.8088 C.ar    1  UNL1        0.1037
     29 N          16.8822   19.6117   -2.4372 N.pl3   1  UNL1       -0.3529
     30 C          18.7703   18.0109   -1.6480 C.ar    1  UNL1        0.1556
     31 F          17.9673   16.8333   -2.1156 F       1  UNL1       -0.2028
     32 C          20.1158   17.7993   -1.0196 C.ar    1  UNL1        0.0268
     33 H          16.5262   20.5235   -2.5427 H       1  UNL1        0.1425
     34 H          16.3552   18.8389   -2.7441 H       1  UNL1        0.1425
     35 O          18.4882   21.9668   -1.5019 O.3     1  UNL1       -0.4665
     36 C          18.3109   22.8465   -0.3000 C.3     1  UNL1        0.2891
     37 C          17.8101   22.2641    0.9884 C.3     1  UNL1        0.4366
     38 F          17.3092   21.6817    2.2768 F       1  UNL1       -0.1663
     39 F          19.1883   22.3680    1.5711 F       1  UNL1       -0.1663
     40 F          16.4318   22.1602    0.4057 F       1  UNL1       -0.1663
     41 C          18.6344   24.3086   -0.3864 C.3     1  UNL1        0.1945
     42 O          20.0066   24.7957   -0.0261 O.3     1  UNL1       -0.3469
     43 C          20.2279   25.5270    1.2648 C.3     1  UNL1        0.1743
@<TRIPOS>UNITY_ATOM_ATTR
10 1
charge 1
@<TRIPOS>BOND
     1     1     2    2
     2     1     3    1
     3     3     4    1
     4     4    24    1
     5    24    25    1
     6    25    26   ar
     7    26    27   ar
     8    27    35    1
     9    35    36    1
    10    36    41    1
    11    41    42    1
    12    42    43    1
    13    36    37    1
    14    37    38    1
    15    37    39    1
    16    37    40    1
    17    27    28   ar
    18    28    29    1
    19    28    30   ar
    20    30    31    1
    21    30    32   ar
    22     4     5    1
    23     5     6    1
    24     5     7    1
    25     7    10    1
    26    10    13    1
    27    13    14    1
    28    14    15   ar
    29    15    16   ar
    30    16    17   ar
    31    17    18   ar
    32    18    19   ar
    33    16    20    1
    34    20    21    1
    35    20    22    1
    36    20    23    1
    37     7     8    1
    38     8     1    1
    39    32    25   ar
    40    19    14   ar
    41    29    33    1
    42    29    34    1
    43     6     9    1
    44    10    11    1
    45    10    12    1
@<TRIPOS>MOLECULE
*****
 43 45 0 0 0
SMALL
GASTEIGER

@<TRIPOS>ATOM
      1 S          26.9371   29.1842    0.9300 S.O     1  UNL1        0.0477
      2 O          28.2130   29.9270    1.1955 O.2     1  UNL1       -0.2557
      3 C          25.9451   29.7260   -0.0560 C.3     1  UNL1        0.0949
      4 C          24.6693   28.9833   -0.3215 C.3     1  UNL1        0.0504
      5 C          24.3855   27.6986    0.3990 C.3     1  UNL1        0.1616
      6 O          23.1096   26.9559    0.1335 O.3     1  UNL1       -0.3788
      7 C          25.3775   27.1568    1.3850 C.3     1  UNL1        0.0935
      8 C          26.6533   27.8996    1.6505 C.3     1  UNL1        0.1488
      9 H          22.9261   26.1251    0.5994 H       1  UNL1        0.2106
     10 N          25.0937   25.8721    2.1055 N.4     1  UNL1        0.2561
     11 H          24.2712   25.7938    2.7037 H       1  UNL1        0.2038
     12 H          24.9007   24.9986    2.5955 H       1  UNL1        0.2038
     13 C          26.0194   24.7027    1.9465 C.3     1  UNL1        0.1296
     14 C          26.2690   24.1233    0.5855 C.ar    1  UNL1        0.0322
     15 C          25.5382   22.8876    0.1509 C.ar    1  UNL1       -0.0029
     16 C          25.7878   22.3083   -1.2100 C.ar    1  UNL1       -0.0229
     17 C          26.7681   22.9647   -2.1363 C.ar    1  UNL1       -0.0043
     18 C          27.4988   24.2005   -1.7017 C.ar    1  UNL1       -0.0004
     19 C          27.2492   24.7798   -0.3408 C.ar    1  UNL1        0.0014
     20 C          25.0571   21.0724   -1.6446 C.3     1  UNL1        0.0189
     21 C          25.6819   21.1811   -3.0039 C.3     1  UNL1        0.0044
     22 C          24.4322   20.9638   -0.2853 C.3     1  UNL1        0.0044
     23 C          24.3264   19.8367   -2.0792 C.3     1  UNL1        0.0044
     24 C          23.6772   29.5252   -1.3076 C.3     1  UNL1        0.0301
     25 C          22.9720   30.8191   -1.0278 C.ar    1  UNL1       -0.0167
     26 C          23.1731   31.9948   -1.9375 C.ar    1  UNL1        0.0341
     27 C          22.4679   33.2888   -1.6577 C.ar    1  UNL1        0.1535
     28 C          21.5615   33.4071   -0.4684 C.ar    1  UNL1        0.1037
     29 N          20.8563   34.7011   -0.1886 N.pl3   1  UNL1       -0.3529
     30 C          21.3604   32.2315    0.4412 C.ar    1  UNL1        0.1556
     31 F          20.4540   32.3498    1.6306 F       1  UNL1       -0.2028
     32 C          22.0656   30.9375    0.1615 C.ar    1  UNL1        0.0268
     33 H          20.9883   35.4727   -0.7856 H       1  UNL1        0.1425
     34 H          20.2614   34.7788    0.5920 H       1  UNL1        0.1425
     35 O          22.6690   34.4645   -2.5673 O.3     1  UNL1       -0.4665
     36 C          23.7714   35.4443   -2.2940 C.3     1  UNL1        0.2891
     37 C          25.2028   35.0292   -2.4632 C.3     1  UNL1        0.4366
     38 F          26.6343   34.6141   -2.6325 F       1  UNL1       -0.1663
     39 F          24.8574   34.3689   -3.7650 F       1  UNL1       -0.1663
     40 F          25.5483   35.6895   -1.1615 F       1  UNL1       -0.1663
     41 C          23.4424   36.8392   -1.8513 C.3     1  UNL1        0.1945
     42 O          22.2027   37.0982   -1.0476 O.3     1  UNL1       -0.3469
     43 C          21.9354   38.4699   -0.5024 C.3     1  UNL1        0.1743
@<TRIPOS>UNITY_ATOM_ATTR
10 1
charge 1
@<TRIPOS>BOND
     1     1     2    2
     2     1     3    1
     3     3     4    1
     4     4    24    1
     5    24    25    1
     6    25    26   ar
     7    26    27   ar
     8    27    35    1
     9    35    36    1
    10    36    41    1
    11    41    42    1
    12    42    43    1
    13    36    37    1
    14    37    38    1
    15    37    39    1
    16    37    40    1
    17    27    28   ar
    18    28    29    1
    19    28    30   ar
    20    30    31    1
    21    30    32   ar
    22     4     5    1
    23     5     6    1
    24     5     7    1
    25     7    10    1
    26    10    13    1
    27    13    14    1
    28    14    15   ar
    29    15    16   ar
    30    16    17   ar
    31    17    18   ar
    32    18    19   ar
    33    16    20    1
    34    20    21    1
    35    20    22    1
    36    20    23    1
    37     7     8    1
    38     8     1    1
    39    32    25   ar
    40    19    14   ar
    41    29    33    1
    42    29    34    1
    43     6     9    1
    44    10    11    1
    45    10    12    1
@<TRIPOS>MOLECULE
*****
 43 45 0 0 0
SMALL
GASTEIGER

@<TRIPOS>ATOM
      1 S          26.9574   28.1584    1.1307 S.O     1  UNL1        0.0477
      2 O          28.2315   28.7307    1.6775 O.2     1  UNL1       -0.2557
      3 C          25.6374   28.7453    1.5346 C.3     1  UNL1        0.0949
      4 C          24.3633   28.1729    0.9878 C.3     1  UNL1        0.0504
      5 C          24.4091   27.0137    0.0371 C.3     1  UNL1        0.1616
      6 O          23.1350   26.4414   -0.5097 O.3     1  UNL1       -0.3788
      7 C          25.7291   26.4268   -0.3669 C.3     1  UNL1        0.0935
      8 C          27.0032   26.9991    0.1799 C.3     1  UNL1        0.1488
      9 H          23.1646   25.6917   -1.1246 H       1  UNL1        0.2106
     10 N          25.7749   25.2675   -1.3177 N.4     1  UNL1        0.2561
     11 H          25.3703   25.3561   -2.2498 H       1  UNL1        0.2038
     12 H          25.8061   24.4792   -1.9643 H       1  UNL1        0.2038
     13 C          26.4158   23.9780   -0.8978 C.3     1  UNL1        0.1296
     14 C          26.1370   22.7179   -1.6624 C.ar    1  UNL1        0.0322
     15 C          25.2059   21.6874   -1.0960 C.ar    1  UNL1       -0.0029
     16 C          24.9271   20.4274   -1.8607 C.ar    1  UNL1       -0.0229
     17 C          25.5795   20.1980   -3.1918 C.ar    1  UNL1       -0.0043
     18 C          26.5106   21.2286   -3.7582 C.ar    1  UNL1       -0.0004
     19 C          26.7894   22.4885   -2.9935 C.ar    1  UNL1        0.0014
     20 C          23.9959   19.3968   -1.2943 C.3     1  UNL1        0.0189
     21 C          23.6867   18.9144   -2.6805 C.3     1  UNL1        0.0044
     22 C          24.3051   19.8792    0.0919 C.3     1  UNL1        0.0044
     23 C          23.0648   18.3662   -0.7279 C.3     1  UNL1        0.0044
     24 C          23.0433   28.7599    1.3919 C.3     1  UNL1        0.0301
     25 C          22.5537   30.0212    0.7443 C.ar    1  UNL1       -0.0167
     26 C          23.1516   30.4792   -0.5530 C.ar    1  UNL1        0.0341
     27 C          22.6620   31.7405   -1.2006 C.ar    1  UNL1        0.1535
     28 C          21.5744   32.5438   -0.5510 C.ar    1  UNL1        0.1037
     29 N          21.0847   33.8050   -1.1986 N.pl3   1  UNL1       -0.3529
     30 C          20.9765   32.0858    0.7462 C.ar    1  UNL1        0.1556
     31 F          19.8889   32.8890    1.3958 F       1  UNL1       -0.2028
     32 C          21.4661   30.8245    1.3938 C.ar    1  UNL1        0.0268
     33 H          21.4772   34.1056   -2.0500 H       1  UNL1        0.1425
     34 H          20.3709   34.3323   -0.7723 H       1  UNL1        0.1425
     35 O          23.2599   32.1985   -2.4978 O.3     1  UNL1       -0.4665
     36 C          24.7346   32.0598   -2.7343 C.3     1  UNL1        0.2891
     37 C          25.2347   31.2951   -3.9239 C.3     1  UNL1        0.4366
     38 F          25.7349   30.5305   -5.1135 F       1  UNL1       -0.1663
     39 F          24.0992   30.3260   -3.7784 F       1  UNL1       -0.1663
     40 F          26.3703   32.2643   -4.0694 F       1  UNL1       -0.1663
     41 C          25.7092   32.6857   -1.7813 C.3     1  UNL1        0.1945
     42 O          26.3756   31.8469   -0.7314 O.3     1  UNL1       -0.3469
     43 C          27.7212   31.2402   -0.9987 C.3     1  UNL1        0.1743
@<TRIPOS>UNITY_ATOM_ATTR
10 1
charge 1
@<TRIPOS>BOND
     1     1     2    2
     2     1     3    1
     3     3     4    1
     4     4    24    1
     5    24    25    1
     6    25    26   ar
     7    26    27   ar
     8    27    35    1
     9    35    36    1
    10    36    41    1
    11    41    42    1
    12    42    43    1
    13    36    37    1
    14    37    38    1
    15    37    39    1
    16    37    40    1
    17    27    28   ar
    18    28    29    1
    19    28    30   ar
    20    30    31    1
    21    30    32   ar
    22     4     5    1
    23     5     6    1
    24     5     7    1
    25     7    10    1
    26    10    13    1
    27    13    14    1
    28    14    15   ar
    29    15    16   ar
    30    16    17   ar
    31    17    18   ar
    32    18    19   ar
    33    16    20    1
    34    20    21    1
    35    20    22    1
    36    20    23    1
    37     7     8    1
    38     8     1    1
    39    32    25   ar
    40    19    14   ar
    41    29    33    1
    42    29    34    1
    43     6     9    1
    44    10    11    1
    45    10    12    1
@<TRIPOS>MOLECULE
*****
 43 45 0 0 0
SMALL
GASTEIGER

@<TRIPOS>ATOM
      1 S          24.1896   18.3378    0.3773 S.O     1  UNL1        0.0477
      2 O          25.4090   18.5850   -0.4606 O.2     1  UNL1       -0.2557
      3 C          23.2779   19.4757    0.7289 C.3     1  UNL1        0.0949
      4 C          22.0586   19.2285    1.5668 C.3     1  UNL1        0.0504
      5 C          21.7510   17.8433    2.0531 C.3     1  UNL1        0.1616
      6 O          20.5316   17.5961    2.8910 O.3     1  UNL1       -0.3788
      7 C          22.6627   16.7053    1.7015 C.3     1  UNL1        0.0935
      8 C          23.8820   16.9525    0.8636 C.3     1  UNL1        0.1488
      9 H          20.3327   16.7003    3.2055 H       1  UNL1        0.2106
     10 N          22.3551   15.3200    2.1878 N.4     1  UNL1        0.2561
     11 H          22.5303   15.0706    3.1612 H       1  UNL1        0.2038
     12 H          22.1460   14.3781    2.5185 H       1  UNL1        0.2038
     13 C          21.7899   14.3016    1.2427 C.3     1  UNL1        0.1296
     14 C          21.8283   12.8450    1.5990 C.ar    1  UNL1        0.0322
     15 C          20.5845   12.1571    2.0781 C.ar    1  UNL1       -0.0029
     16 C          20.6229   10.7005    2.4344 C.ar    1  UNL1       -0.0229
     17 C          21.9051    9.9319    2.3115 C.ar    1  UNL1       -0.0043
     18 C          23.1489   10.6198    1.8323 C.ar    1  UNL1       -0.0004
     19 C          23.1105   12.0764    1.4761 C.ar    1  UNL1        0.0014
     20 C          19.3790   10.0125    2.9136 C.3     1  UNL1        0.0189
     21 C          18.5533   10.8699    2.0009 C.3     1  UNL1        0.0044
     22 C          20.2048    9.1551    3.8262 C.3     1  UNL1        0.0044
     23 C          18.1352    9.3246    3.3927 C.3     1  UNL1        0.0044
     24 C          21.1468   20.3666    1.9184 C.3     1  UNL1        0.0301
     25 C          20.2350   20.9461    0.8778 C.ar    1  UNL1       -0.0167
     26 C          19.5978   20.0510   -0.1434 C.ar    1  UNL1        0.0341
     27 C          18.6860   20.6304   -1.1840 C.ar    1  UNL1        0.1535
     28 C          18.4113   22.1050   -1.2033 C.ar    1  UNL1        0.1037
     29 N          17.4995   22.6845   -2.2439 N.pl3   1  UNL1       -0.3529
     30 C          19.0485   23.0000   -0.1821 C.ar    1  UNL1        0.1556
     31 F          18.7738   24.4746   -0.2014 F       1  UNL1       -0.2028
     32 C          19.9603   22.4205    0.8585 C.ar    1  UNL1        0.0268
     33 H          17.0813   22.0970   -2.9141 H       1  UNL1        0.1425
     34 H          17.3192   23.6523   -2.2565 H       1  UNL1        0.1425
     35 O          18.0488   19.7354   -2.2052 O.3     1  UNL1       -0.4665
     36 C          18.7632   18.5015   -2.6712 C.3     1  UNL1        0.2891
     37 C          18.2615   17.1469   -2.2673 C.3     1  UNL1        0.4366
     38 F          17.7598   15.7921   -1.8635 F       1  UNL1       -0.1663
     39 F          19.3252   17.0674   -1.2127 F       1  UNL1       -0.1663
     40 F          17.1979   17.2263   -3.3220 F       1  UNL1       -0.1663
     41 C          19.9793   18.6223   -3.5409 C.3     1  UNL1        0.1945
     42 O          21.3394   18.7303   -2.9177 O.3     1  UNL1       -0.3469
     43 C          22.2537   17.5412   -2.9021 C.3     1  UNL1        0.1743
@<TRIPOS>UNITY_ATOM_ATTR
10 1
charge 1
@<TRIPOS>BOND
     1     1     2    2
     2     1     3    1
     3     3     4    1
     4     4    24    1
     5    24    25    1
     6    25    26   ar
     7    26    27   ar
     8    27    35    1
     9    35    36    1
    10    36    41    1
    11    41    42    1
    12    42    43    1
    13    36    37    1
    14    37    38    1
    15    37    39    1
    16    37    40    1
    17    27    28   ar
    18    28    29    1
    19    28    30   ar
    20    30    31    1
    21    30    32   ar
    22     4     5    1
    23     5     6    1
    24     5     7    1
    25     7    10    1
    26    10    13    1
    27    13    14    1
    28    14    15   ar
    29    15    16   ar
    30    16    17   ar
    31    17    18   ar
    32    18    19   ar
    33    16    20    1
    34    20    21    1
    35    20    22    1
    36    20    23    1
    37     7     8    1
    38     8     1    1
    39    32    25   ar
    40    19    14   ar
    41    29    33    1
    42    29    34    1
    43     6     9    1
    44    10    11    1
    45    10    12    1
@<TRIPOS>MOLECULE
*****
 46 48 0 0 0
SMALL
GASTEIGER

@<TRIPOS>ATOM
      1 C          23.2067   18.5351    0.2431 C.3     1  UNL1        0.1089
      2 N          24.2269   19.3575   -0.4870 N.am    1  UNL1       -0.2995
      3 C          24.2435   20.8487   -0.3249 C.2     1  UNL1        0.2459
      4 O          23.2398   21.5174    0.5671 O.2     1  UNL1       -0.2701
      5 H          24.8855   18.9186   -1.0724 H       1  UNL1        0.1498
      6 C          25.2636   21.6711   -1.0549 C.ar    1  UNL1        0.0532
      7 C          25.8249   22.9078   -0.4182 C.ar    1  UNL1        0.0090
      8 C          26.8451   23.7303   -1.1481 C.ar    1  UNL1        0.0534
      9 C          27.3040   23.3160   -2.5148 C.ar    1  UNL1        0.0003
     10 C          26.7426   22.0792   -3.1515 C.ar    1  UNL1       -0.0216
     11 C          25.7225   21.2568   -2.4216 C.ar    1  UNL1        0.0003
     12 C          27.2015   21.6649   -4.5182 C.3     1  UNL1        0.0310
     13 C          27.4064   24.9670   -0.5114 C.2     1  UNL1        0.2490
     14 O          28.7856   24.9473    0.0780 O.2     1  UNL1       -0.2699
     15 N          26.5885   26.2235   -0.4641 N.am    1  UNL1       -0.2761
     16 C          27.1499   27.4603    0.1726 C.3     1  UNL1        0.0937
     17 C          26.9884   27.6841    1.6470 C.3     1  UNL1        0.0215
     18 C          26.6165   29.0425    2.1632 C.3     1  UNL1        0.0018
     19 C          25.2093   26.2433   -1.0535 C.3     1  UNL1        0.0937
     20 C          24.4707   27.5418   -1.1903 C.3     1  UNL1        0.0215
     21 C          23.5457   27.9967   -0.1007 C.3     1  UNL1        0.0018
     22 C          23.0912   18.6349    1.7352 C.3     1  UNL1        0.1839
     23 O          24.3281   18.6505    2.5838 O.3     1  UNL1       -0.3775
     24 H          24.2534   18.7150    3.5488 H       1  UNL1        0.2106
     25 C          21.7390   18.7191    2.3789 C.3     1  UNL1        0.1339
     26 N          21.0439   20.0435    2.4933 N.4     1  UNL1        0.2597
     27 H          21.5633   20.8676    2.7957 H       1  UNL1        0.2040
     28 H          20.5713   20.9440    2.5710 H       1  UNL1        0.2040
     29 C          19.5851   20.1558    2.1629 C.3     1  UNL1        0.1299
     30 C          19.0255   21.4578    1.6713 C.ar    1  UNL1        0.0356
     31 C          19.9490   22.5878    1.3245 C.ar    1  UNL1        0.0383
     32 C          19.3895   23.8898    0.8329 C.ar    1  UNL1        0.1386
     33 C          17.9064   24.0618    0.6881 C.ar    1  UNL1        0.0369
     34 C          16.9829   22.9318    1.0349 C.ar    1  UNL1        0.0030
     35 C          17.5425   21.6298    1.5265 C.ar    1  UNL1        0.0016
     36 O          20.3130   25.0198    0.4861 O.3     1  UNL1       -0.4714
     37 C          20.9806   25.8044    1.5763 C.3     1  UNL1        0.2525
     38 C          22.3019   17.6129   -0.5192 C.3     1  UNL1        0.0487
     39 F          19.1261   21.5496   -1.7095 F       1  UNL1       -0.2041
     40 C          19.3903   20.0760   -1.6174 C.ar    1  UNL1        0.1421
     41 C          20.7140   19.5813   -1.1144 C.ar    1  UNL1        0.0256
     42 C          20.9781   18.1076   -1.0223 C.ar    1  UNL1       -0.0160
     43 C          19.9186   17.1286   -1.4332 C.ar    1  UNL1        0.0256
     44 C          18.5949   17.6233   -1.9363 C.ar    1  UNL1        0.1421
     45 F          17.5353   16.6442   -2.3472 F       1  UNL1       -0.2041
     46 C          18.3308   19.0969   -2.0284 C.ar    1  UNL1        0.0592
@<TRIPOS>UNITY_ATOM_ATTR
26 1
charge 1
@<TRIPOS>BOND
     1    39    40    1
     2    40    41   ar
     3    41    42   ar
     4    42    43   ar
     5    43    44   ar
     6    44    45    1
     7    44    46   ar
     8    42    38    1
     9     1    38    1
    10     1     2    1
    11     2     3   am
    12     3     4    2
    13     3     6    1
    14     6     7   ar
    15     7     8   ar
    16     8     9   ar
    17     9    10   ar
    18    10    11   ar
    19    10    12    1
    20     8    13    1
    21    13    14    2
    22    13    15   am
    23    15    16    1
    24    16    17    1
    25    17    18    1
    26    15    19    1
    27    19    20    1
    28    20    21    1
    29     1    22    1
    30    22    23    1
    31    22    25    1
    32    25    26    1
    33    26    29    1
    34    29    30    1
    35    30    31   ar
    36    31    32   ar
    37    32    36    1
    38    36    37    1
    39    32    33   ar
    40    33    34   ar
    41    34    35   ar
    42    46    40   ar
    43    11     6   ar
    44    35    30   ar
    45     2     5    1
    46    23    24    1
    47    26    27    1
    48    26    28    1
@<TRIPOS>MOLECULE
*****
 46 48 0 0 0
SMALL
GASTEIGER

@<TRIPOS>ATOM
      1 C          23.6353   25.5703    1.5781 C.3     1  UNL1        0.1089
      2 N          23.3779   26.7884    0.7413 N.am    1  UNL1       -0.2995
      3 C          23.5838   28.1554    1.3234 C.2     1  UNL1        0.2459
      4 O          24.0470   28.3043    2.7424 O.2     1  UNL1       -0.2701
      5 H          23.0739   26.6906   -0.1900 H       1  UNL1        0.1498
      6 C          23.3265   29.3734    0.4867 C.ar    1  UNL1        0.0532
      7 C          24.0852   29.5797   -0.7907 C.ar    1  UNL1        0.0090
      8 C          23.8279   30.7978   -1.6275 C.ar    1  UNL1        0.0534
      9 C          22.8119   31.8095   -1.1869 C.ar    1  UNL1        0.0003
     10 C          22.0531   31.6031    0.0906 C.ar    1  UNL1       -0.0216
     11 C          22.3104   30.3851    0.9273 C.ar    1  UNL1        0.0003
     12 C          21.0371   32.6148    0.5312 C.3     1  UNL1        0.0310
     13 C          24.5867   31.0042   -2.9048 C.2     1  UNL1        0.2490
     14 O          24.0597   30.4378   -4.1901 O.2     1  UNL1       -0.2699
     15 N          25.8723   31.7769   -2.8971 N.am    1  UNL1       -0.2761
     16 C          26.6310   31.9832   -4.1746 C.3     1  UNL1        0.0937
     17 C          27.7734   31.0758   -4.5233 C.3     1  UNL1        0.0215
     18 C          27.6775   29.6061   -4.2392 C.3     1  UNL1        0.0018
     19 C          26.3992   32.3432   -1.6120 C.3     1  UNL1        0.0937
     20 C          27.6138   31.7415   -0.9694 C.3     1  UNL1        0.0215
     21 C          27.5449   30.3650   -0.3774 C.3     1  UNL1        0.0018
     22 C          22.4976   24.8859    2.2761 C.3     1  UNL1        0.1839
     23 O          22.1942   23.4466    1.9821 O.3     1  UNL1       -0.3775
     24 H          21.4585   23.0040    2.4334 H       1  UNL1        0.2106
     25 C          21.6634   25.6407    3.2682 C.3     1  UNL1        0.1339
     26 N          20.1799   25.4240    3.3196 N.4     1  UNL1        0.2597
     27 H          19.7437   25.0826    4.1761 H       1  UNL1        0.2040
     28 H          19.1712   25.2767    3.3545 H       1  UNL1        0.2040
     29 C          19.3380   25.7094    2.1113 C.3     1  UNL1        0.1299
     30 C          18.8657   24.5812    1.2429 C.ar    1  UNL1        0.0356
     31 C          18.3443   23.3213    1.8678 C.ar    1  UNL1        0.0383
     32 C          17.8719   22.1931    0.9994 C.ar    1  UNL1        0.1386
     33 C          17.9210   22.3250   -0.4941 C.ar    1  UNL1        0.0369
     34 C          18.4425   23.5850   -1.1190 C.ar    1  UNL1        0.0030
     35 C          18.9148   24.7131   -0.2504 C.ar    1  UNL1        0.0016
     36 O          17.3505   20.9332    1.6243 O.3     1  UNL1       -0.4714
     37 C          17.7875   20.5445    3.0056 C.3     1  UNL1        0.2525
     38 C          25.0303   25.0367    1.7168 C.3     1  UNL1        0.0487
     39 F          28.5473   26.1533   -1.9416 F       1  UNL1       -0.2041
     40 C          27.5645   25.1973   -1.3331 C.ar    1  UNL1        0.1421
     41 C          26.7888   25.5950   -0.1124 C.ar    1  UNL1        0.0256
     42 C          25.8060   24.6390    0.4961 C.ar    1  UNL1       -0.0160
     43 C          25.5990   23.2854   -0.1161 C.ar    1  UNL1        0.0256
     44 C          26.3747   22.8877   -1.3367 C.ar    1  UNL1        0.1421
     45 F          26.1676   21.5341   -1.9490 F       1  UNL1       -0.2041
     46 C          27.3574   23.8437   -1.9452 C.ar    1  UNL1        0.0592
@<TRIPOS>UNITY_ATOM_ATTR
26 1
charge 1
@<TRIPOS>BOND
     1    39    40    1
     2    40    41   ar
     3    41    42   ar
     4    42    43   ar
     5    43    44   ar
     6    44    45    1
     7    44    46   ar
     8    42    38    1
     9     1    38    1
    10     1     2    1
    11     2     3   am
    12     3     4    2
    13     3     6    1
    14     6     7   ar
    15     7     8   ar
    16     8     9   ar
    17     9    10   ar
    18    10    11   ar
    19    10    12    1
    20     8    13    1
    21    13    14    2
    22    13    15   am
    23    15    16    1
    24    16    17    1
    25    17    18    1
    26    15    19    1
    27    19    20    1
    28    20    21    1
    29     1    22    1
    30    22    23    1
    31    22    25    1
    32    25    26    1
    33    26    29    1
    34    29    30    1
    35    30    31   ar
    36    31    32   ar
    37    32    36    1
    38    36    37    1
    39    32    33   ar
    40    33    34   ar
    41    34    35   ar
    42    46    40   ar
    43    11     6   ar
    44    35    30   ar
    45     2     5    1
    46    23    24    1
    47    26    27    1
    48    26    28    1
@<TRIPOS>MOLECULE
*****
 46 48 0 0 0
SMALL
GASTEIGER

@<TRIPOS>ATOM
      1 C          23.5920   25.5109    1.5745 C.3     1  UNL1        0.1089
      2 N          23.3502   26.7335    0.7398 N.am    1  UNL1       -0.2995
      3 C          23.5322   28.0974    1.3370 C.2     1  UNL1        0.2459
      4 O          23.9560   28.2387    2.7690 O.2     1  UNL1       -0.2701
      5 H          23.0721   26.6408   -0.2001 H       1  UNL1        0.1498
      6 C          23.2905   29.3200    0.5023 C.ar    1  UNL1        0.0532
      7 C          24.0532   29.5198   -0.7737 C.ar    1  UNL1        0.0090
      8 C          23.8115   30.7424   -1.6085 C.ar    1  UNL1        0.0534
      9 C          22.8070   31.7653   -1.1672 C.ar    1  UNL1        0.0003
     10 C          22.0442   31.5655    0.1090 C.ar    1  UNL1       -0.0216
     11 C          22.2860   30.3429    0.9437 C.ar    1  UNL1        0.0003
     12 C          21.0398   32.5884    0.5503 C.3     1  UNL1        0.0310
     13 C          24.5742   30.9422   -2.8845 C.2     1  UNL1        0.2490
     14 O          24.0579   30.3583   -4.1662 O.2     1  UNL1       -0.2699
     15 N          25.8532   31.7258   -2.8790 N.am    1  UNL1       -0.2761
     16 C          26.6159   31.9255   -4.1551 C.3     1  UNL1        0.0937
     17 C          27.8090   31.0682   -4.4578 C.3     1  UNL1        0.0215
     18 C          27.6984   29.5743   -4.3796 C.3     1  UNL1        0.0018
     19 C          26.3695   32.3096   -1.5974 C.3     1  UNL1        0.0937
     20 C          27.5012   31.6437   -0.8721 C.3     1  UNL1        0.0215
     21 C          27.4837   30.1595   -0.6564 C.3     1  UNL1        0.0018
     22 C          22.4450   24.8371    2.2676 C.3     1  UNL1        0.1839
     23 O          22.1362   23.3975    1.9804 O.3     1  UNL1       -0.3775
     24 H          21.3945   22.9618    2.4286 H       1  UNL1        0.2106
     25 C          21.6067   25.6028    3.2479 C.3     1  UNL1        0.1339
     26 N          20.1249   25.3762    3.3054 N.4     1  UNL1        0.2597
     27 H          19.6787   25.1432    4.1925 H       1  UNL1        0.2040
     28 H          19.1174   25.2221    3.3445 H       1  UNL1        0.2040
     29 C          19.2995   25.4922    2.0583 C.3     1  UNL1        0.1299
     30 C          18.6684   24.2700    1.4602 C.ar    1  UNL1        0.0356
     31 C          18.6390   24.0936   -0.0291 C.ar    1  UNL1        0.0383
     32 C          18.0079   22.8714   -0.6273 C.ar    1  UNL1        0.1386
     33 C          17.4062   21.8254    0.2639 C.ar    1  UNL1        0.0369
     34 C          17.4357   22.0018    1.7532 C.ar    1  UNL1        0.0030
     35 C          18.0668   23.2242    2.3513 C.ar    1  UNL1        0.0016
     36 O          17.9784   22.6950   -2.1166 O.3     1  UNL1       -0.4714
     37 C          18.3526   23.8366   -3.0146 C.3     1  UNL1        0.2525
     38 C          24.9808   24.9621    1.7162 C.3     1  UNL1        0.0487
     39 F          26.1825   21.5311   -1.9965 F       1  UNL1       -0.2041
     40 C          26.3702   22.8770   -1.3615 C.ar    1  UNL1        0.1421
     41 C          25.5817   23.2466   -0.1402 C.ar    1  UNL1        0.0256
     42 C          25.7694   24.5925    0.4948 C.ar    1  UNL1       -0.0160
     43 C          26.7456   25.5689   -0.0914 C.ar    1  UNL1        0.0256
     44 C          27.5341   25.1993   -1.3127 C.ar    1  UNL1        0.1421
     45 F          28.5104   26.1756   -1.8990 F       1  UNL1       -0.2041
     46 C          27.3464   23.8534   -1.9477 C.ar    1  UNL1        0.0592
@<TRIPOS>UNITY_ATOM_ATTR
26 1
charge 1
@<TRIPOS>BOND
     1    39    40    1
     2    40    41   ar
     3    41    42   ar
     4    42    43   ar
     5    43    44   ar
     6    44    45    1
     7    44    46   ar
     8    42    38    1
     9     1    38    1
    10     1     2    1
    11     2     3   am
    12     3     4    2
    13     3     6    1
    14     6     7   ar
    15     7     8   ar
    16     8     9   ar
    17     9    10   ar
    18    10    11   ar
    19    10    12    1
    20     8    13    1
    21    13    14    2
    22    13    15   am
    23    15    16    1
    24    16    17    1
    25    17    18    1
    26    15    19    1
    27    19    20    1
    28    20    21    1
    29     1    22    1
    30    22    23    1
    31    22    25    1
    32    25    26    1
    33    26    29    1
    34    29    30    1
    35    30    31   ar
    36    31    32   ar
    37    32    36    1
    38    36    37    1
    39    32    33   ar
    40    33    34   ar
    41    34    35   ar
    42    46    40   ar
    43    11     6   ar
    44    35    30   ar
    45     2     5    1
    46    23    24    1
    47    26    27    1
    48    26    28    1
@<TRIPOS>MOLECULE
*****
 46 48 0 0 0
SMALL
GASTEIGER

@<TRIPOS>ATOM
      1 C          22.5389   19.6291    0.4761 C.3     1  UNL1        0.1089
      2 N          23.2845   20.9284    0.3980 N.am    1  UNL1       -0.2995
      3 C          24.6092   20.9919   -0.3029 C.2     1  UNL1        0.2459
      4 O          25.1882   19.7563   -0.9257 O.2     1  UNL1       -0.2701
      5 H          22.9044   21.7393    0.8068 H       1  UNL1        0.1498
      6 C          25.3548   22.2911   -0.3809 C.ar    1  UNL1        0.0532
      7 C          25.0679   23.3811    0.6089 C.ar    1  UNL1        0.0090
      8 C          25.8135   24.6804    0.5308 C.ar    1  UNL1        0.0534
      9 C          26.8460   24.8896   -0.5370 C.ar    1  UNL1        0.0003
     10 C          27.1327   23.7996   -1.5269 C.ar    1  UNL1       -0.0216
     11 C          26.3872   22.5004   -1.4488 C.ar    1  UNL1        0.0003
     12 C          28.1651   24.0089   -2.5947 C.3     1  UNL1        0.0310
     13 C          25.5267   25.7703    1.5206 C.2     1  UNL1        0.2490
     14 O          26.2733   25.8182    2.8208 O.2     1  UNL1       -0.2699
     15 N          24.4934   26.8123    1.2103 N.am    1  UNL1       -0.2761
     16 C          24.2066   27.9023    2.2002 C.3     1  UNL1        0.0937
     17 C          24.8640   29.2423    2.0516 C.3     1  UNL1        0.0215
     18 C          26.3601   29.3444    2.0201 C.3     1  UNL1        0.0018
     19 C          23.7468   26.7644   -0.0898 C.3     1  UNL1        0.0937
     20 C          24.2796   27.4930   -1.2879 C.3     1  UNL1        0.0215
     21 C          23.9415   28.9392   -1.4978 C.3     1  UNL1        0.0018
     22 C          23.0548   18.5192    1.3432 C.3     1  UNL1        0.1839
     23 O          24.0358   18.8171    2.4382 O.3     1  UNL1       -0.3775
     24 H          24.3695   18.0994    2.9990 H       1  UNL1        0.2106
     25 C          22.5899   17.1114    1.1154 C.3     1  UNL1        0.1339
     26 N          22.9428   16.0363    2.1002 N.4     1  UNL1        0.2597
     27 H          22.4373   15.9679    2.9834 H       1  UNL1        0.2040
     28 H          23.1828   15.3053    2.7698 H       1  UNL1        0.2040
     29 C          24.0391   15.0620    1.7860 C.3     1  UNL1        0.1299
     30 C          23.8740   13.6111    2.1288 C.ar    1  UNL1        0.0356
     31 C          23.0294   12.7266    1.2603 C.ar    1  UNL1        0.0383
     32 C          22.8643   11.2757    1.6031 C.ar    1  UNL1        0.1386
     33 C          23.5439   10.7092    2.8145 C.ar    1  UNL1        0.0369
     34 C          24.3886   11.5937    3.6829 C.ar    1  UNL1        0.0030
     35 C          24.5536   13.0446    3.3401 C.ar    1  UNL1        0.0016
     36 O          22.0196   10.3912    0.7347 O.3     1  UNL1       -0.4714
     37 C          22.6248    9.1861    0.0780 C.3     1  UNL1        0.2525
     38 C          21.2774   19.4397   -0.3131 C.3     1  UNL1        0.0487
     39 F          17.7175   20.8837    3.1858 F       1  UNL1       -0.2041
     40 C          18.2666   20.9423    1.7912 C.ar    1  UNL1        0.1421
     41 C          19.4974   20.1618    1.4364 C.ar    1  UNL1        0.0256
     42 C          20.0465   20.2203    0.0417 C.ar    1  UNL1       -0.0160
     43 C          19.3649   21.0593   -0.9981 C.ar    1  UNL1        0.0256
     44 C          18.1341   21.8398   -0.6433 C.ar    1  UNL1        0.1421
     45 F          17.4523   22.6789   -1.6832 F       1  UNL1       -0.2041
     46 C          17.5850   21.7813    0.7514 C.ar    1  UNL1        0.0592
@<TRIPOS>UNITY_ATOM_ATTR
26 1
charge 1
@<TRIPOS>BOND
     1    39    40    1
     2    40    41   ar
     3    41    42   ar
     4    42    43   ar
     5    43    44   ar
     6    44    45    1
     7    44    46   ar
     8    42    38    1
     9     1    38    1
    10     1     2    1
    11     2     3   am
    12     3     4    2
    13     3     6    1
    14     6     7   ar
    15     7     8   ar
    16     8     9   ar
    17     9    10   ar
    18    10    11   ar
    19    10    12    1
    20     8    13    1
    21    13    14    2
    22    13    15   am
    23    15    16    1
    24    16    17    1
    25    17    18    1
    26    15    19    1
    27    19    20    1
    28    20    21    1
    29     1    22    1
    30    22    23    1
    31    22    25    1
    32    25    26    1
    33    26    29    1
    34    29    30    1
    35    30    31   ar
    36    31    32   ar
    37    32    36    1
    38    36    37    1
    39    32    33   ar
    40    33    34   ar
    41    34    35   ar
    42    46    40   ar
    43    11     6   ar
    44    35    30   ar
    45     2     5    1
    46    23    24    1
    47    26    27    1
    48    26    28    1
@<TRIPOS>MOLECULE
*****
 46 48 0 0 0
SMALL
GASTEIGER

@<TRIPOS>ATOM
      1 C          23.4127   28.4271    2.4199 C.3     1  UNL1        0.1089
      2 N          22.8781   29.7811    2.0578 N.am    1  UNL1       -0.2995
      3 C          22.8004   30.1963    0.6185 C.2     1  UNL1        0.2459
      4 O          23.2573   29.2575   -0.4586 O.2     1  UNL1       -0.2701
      5 H          22.5783   30.3971    2.7647 H       1  UNL1        0.1498
      6 C          22.2658   31.5501    0.2563 C.ar    1  UNL1        0.0532
      7 C          23.1536   32.5496   -0.4240 C.ar    1  UNL1        0.0090
      8 C          22.6190   33.9035   -0.7863 C.ar    1  UNL1        0.0534
      9 C          21.1966   34.2579   -0.4682 C.ar    1  UNL1        0.0003
     10 C          20.3088   33.2584    0.2122 C.ar    1  UNL1       -0.0216
     11 C          20.8434   31.9046    0.5744 C.ar    1  UNL1        0.0003
     12 C          18.8864   33.6128    0.5303 C.3     1  UNL1        0.0310
     13 C          23.5068   34.9030   -1.4666 C.2     1  UNL1        0.2490
     14 O          24.3026   35.8776   -0.6499 O.2     1  UNL1       -0.2699
     15 N          23.5989   34.9278   -2.9636 N.am    1  UNL1       -0.2761
     16 C          24.4868   35.9273   -3.6439 C.3     1  UNL1        0.0937
     17 C          23.9000   37.1812   -4.2212 C.3     1  UNL1        0.0215
     18 C          23.2336   38.1803   -3.3224 C.3     1  UNL1        0.0018
     19 C          22.8032   33.9532   -3.7802 C.3     1  UNL1        0.0937
     20 C          23.4426   32.6880   -4.2708 C.3     1  UNL1        0.0215
     21 C          24.3676   32.7239   -5.4511 C.3     1  UNL1        0.0018
     22 C          22.4677   27.2877    2.6616 C.3     1  UNL1        0.1839
     23 O          21.8893   27.0699    4.0284 O.3     1  UNL1       -0.3775
     24 H          21.2781   26.3330    4.1846 H       1  UNL1        0.2106
     25 C          22.1009   26.3659    1.5364 C.3     1  UNL1        0.1339
     26 N          20.9692   25.3951    1.7007 N.4     1  UNL1        0.2597
     27 H          21.0554   24.6174    2.3550 H       1  UNL1        0.2040
     28 H          20.1997   24.7350    1.8124 H       1  UNL1        0.2040
     29 C          19.7109   25.5681    0.9028 C.3     1  UNL1        0.1299
     30 C          18.7798   24.4081    0.7097 C.ar    1  UNL1        0.0356
     31 C          18.8784   23.5649   -0.5269 C.ar    1  UNL1        0.0383
     32 C          17.9473   22.4049   -0.7200 C.ar    1  UNL1        0.1386
     33 C          16.9175   22.0879    0.3237 C.ar    1  UNL1        0.0369
     34 C          16.8189   22.9311    1.5604 C.ar    1  UNL1        0.0030
     35 C          17.7501   24.0912    1.7534 C.ar    1  UNL1        0.0016
     36 O          18.0459   21.5617   -1.9566 O.3     1  UNL1       -0.4714
     37 C          18.3204   20.0915   -1.8421 C.3     1  UNL1        0.2525
     38 C          24.8924   28.2127    2.5405 C.3     1  UNL1        0.0487
     39 F          27.6924   27.7320   -1.8103 F       1  UNL1       -0.2041
     40 C          27.0085   27.1081   -0.6300 C.ar    1  UNL1        0.1421
     41 C          26.2924   27.9723    0.3651 C.ar    1  UNL1        0.0256
     42 C          25.6085   27.3484    1.5453 C.ar    1  UNL1       -0.0160
     43 C          25.6407   25.8602    1.7305 C.ar    1  UNL1        0.0256
     44 C          26.3568   24.9960    0.7354 C.ar    1  UNL1        0.1421
     45 F          26.3890   23.5078    0.9206 F       1  UNL1       -0.2041
     46 C          27.0407   25.6199   -0.4449 C.ar    1  UNL1        0.0592
@<TRIPOS>UNITY_ATOM_ATTR
26 1
charge 1
@<TRIPOS>BOND
     1    39    40    1
     2    40    41   ar
     3    41    42   ar
     4    42    43   ar
     5    43    44   ar
     6    44    45    1
     7    44    46   ar
     8    42    38    1
     9     1    38    1
    10     1     2    1
    11     2     3   am
    12     3     4    2
    13     3     6    1
    14     6     7   ar
    15     7     8   ar
    16     8     9   ar
    17     9    10   ar
    18    10    11   ar
    19    10    12    1
    20     8    13    1
    21    13    14    2
    22    13    15   am
    23    15    16    1
    24    16    17    1
    25    17    18    1
    26    15    19    1
    27    19    20    1
    28    20    21    1
    29     1    22    1
    30    22    23    1
    31    22    25    1
    32    25    26    1
    33    26    29    1
    34    29    30    1
    35    30    31   ar
    36    31    32   ar
    37    32    36    1
    38    36    37    1
    39    32    33   ar
    40    33    34   ar
    41    34    35   ar
    42    46    40   ar
    43    11     6   ar
    44    35    30   ar
    45     2     5    1
    46    23    24    1
    47    26    27    1
    48    26    28    1
@<TRIPOS>MOLECULE
*****
 46 48 0 0 0
SMALL
GASTEIGER

@<TRIPOS>ATOM
      1 C          21.9242   19.1293    0.3389 C.3     1  UNL1        0.1089
      2 N          22.7630   20.0144   -0.5347 N.am    1  UNL1       -0.2995
      3 C          24.1990   20.2699   -0.1847 C.2     1  UNL1        0.2459
      4 O          24.7963   19.6402    1.0387 O.2     1  UNL1       -0.2701
      5 H          22.3709   20.4277   -1.3377 H       1  UNL1        0.1498
      6 C          25.0378   21.1549   -1.0582 C.ar    1  UNL1        0.0532
      7 C          25.6937   22.3741   -0.4809 C.ar    1  UNL1        0.0090
      8 C          26.5326   23.2593   -1.3544 C.ar    1  UNL1        0.0534
      9 C          26.7155   22.9252   -2.8052 C.ar    1  UNL1        0.0003
     10 C          26.0596   21.7059   -3.3826 C.ar    1  UNL1       -0.0216
     11 C          25.2208   20.8208   -2.5091 C.ar    1  UNL1        0.0003
     12 C          26.2425   21.3718   -4.8334 C.3     1  UNL1        0.0310
     13 C          27.1885   24.4784   -0.7770 C.2     1  UNL1        0.2490
     14 O          28.6170   24.4179   -0.3234 O.2     1  UNL1       -0.2699
     15 N          26.4159   25.7582   -0.6533 N.am    1  UNL1       -0.2761
     16 C          27.0718   26.9774   -0.0759 C.3     1  UNL1        0.0937
     17 C          27.3405   27.0578    1.3977 C.3     1  UNL1        0.0215
     18 C          26.3785   26.4422    2.3701 C.3     1  UNL1        0.0018
     19 C          24.9874   25.8188   -1.1068 C.3     1  UNL1        0.0937
     20 C          24.1011   26.9379   -0.6463 C.3     1  UNL1        0.0215
     21 C          23.1851   26.7361    0.5242 C.3     1  UNL1        0.0018
     22 C          22.5493   18.4075    1.4956 C.3     1  UNL1        0.1839
     23 O          22.8009   19.1324    2.7846 O.3     1  UNL1       -0.3775
     24 H          23.2052   18.6656    3.5326 H       1  UNL1        0.2106
     25 C          22.9229   16.9608    1.3635 C.3     1  UNL1        0.1339
     26 N          21.9660   15.8953    1.8099 N.4     1  UNL1        0.2597
     27 H          21.2214   16.1221    2.4691 H       1  UNL1        0.2040
     28 H          21.3153   15.1708    2.1133 H       1  UNL1        0.2040
     29 C          22.1040   14.4963    1.2867 C.3     1  UNL1        0.1299
     30 C          22.0921   13.3357    2.2368 C.ar    1  UNL1        0.0356
     31 C          20.9320   12.3848    2.2449 C.ar    1  UNL1        0.0383
     32 C          20.9201   11.2242    3.1950 C.ar    1  UNL1        0.1386
     33 C          22.0683   11.0144    4.1372 C.ar    1  UNL1        0.0369
     34 C          23.2284   11.9652    4.1292 C.ar    1  UNL1        0.0030
     35 C          23.2403   13.1259    3.1790 C.ar    1  UNL1        0.0016
     36 O          19.7600   10.2734    3.2030 O.3     1  UNL1       -0.4714
     37 C          19.8476    8.9899    3.9743 C.3     1  UNL1        0.2525
     38 C          20.4602   18.9661    0.0556 C.3     1  UNL1        0.0487
     39 F          16.9093   22.7576   -0.0676 F       1  UNL1       -0.2041
     40 C          17.6832   21.7271    0.6999 C.ar    1  UNL1        0.1421
     41 C          18.6847   20.8619   -0.0059 C.ar    1  UNL1        0.0256
     42 C          19.4587   19.8314    0.7616 C.ar    1  UNL1       -0.0160
     43 C          19.2311   19.6661    2.2349 C.ar    1  UNL1        0.0256
     44 C          18.2296   20.5314    2.9408 C.ar    1  UNL1        0.1421
     45 F          18.0020   20.3662    4.4143 F       1  UNL1       -0.2041
     46 C          17.4557   21.5619    2.1733 C.ar    1  UNL1        0.0592
@<TRIPOS>UNITY_ATOM_ATTR
26 1
charge 1
@<TRIPOS>BOND
     1    39    40    1
     2    40    41   ar
     3    41    42   ar
     4    42    43   ar
     5    43    44   ar
     6    44    45    1
     7    44    46   ar
     8    42    38    1
     9     1    38    1
    10     1     2    1
    11     2     3   am
    12     3     4    2
    13     3     6    1
    14     6     7   ar
    15     7     8   ar
    16     8     9   ar
    17     9    10   ar
    18    10    11   ar
    19    10    12    1
    20     8    13    1
    21    13    14    2
    22    13    15   am
    23    15    16    1
    24    16    17    1
    25    17    18    1
    26    15    19    1
    27    19    20    1
    28    20    21    1
    29     1    22    1
    30    22    23    1
    31    22    25    1
    32    25    26    1
    33    26    29    1
    34    29    30    1
    35    30    31   ar
    36    31    32   ar
    37    32    36    1
    38    36    37    1
    39    32    33   ar
    40    33    34   ar
    41    34    35   ar
    42    46    40   ar
    43    11     6   ar
    44    35    30   ar
    45     2     5    1
    46    23    24    1
    47    26    27    1
    48    26    28    1
@<TRIPOS>MOLECULE
*****
 46 48 0 0 0
SMALL
GASTEIGER

@<TRIPOS>ATOM
      1 C          25.6766   25.0742    0.0571 C.3     1  UNL1        0.1089
      2 N          25.3210   23.8855   -0.7861 N.am    1  UNL1       -0.2995
      3 C          25.4817   22.4999   -0.2347 C.2     1  UNL1        0.2459
      4 O          25.9979   22.3028    1.1599 O.2     1  UNL1       -0.2701
      5 H          24.9822   24.0149   -1.7014 H       1  UNL1        0.1498
      6 C          25.1262   21.3113   -1.0778 C.ar    1  UNL1        0.0532
      7 C          24.2753   20.2153   -0.5081 C.ar    1  UNL1        0.0090
      8 C          23.9197   19.0266   -1.3512 C.ar    1  UNL1        0.0534
      9 C          24.4152   18.9340   -2.7640 C.ar    1  UNL1        0.0003
     10 C          25.2662   20.0301   -3.3336 C.ar    1  UNL1       -0.0216
     11 C          25.6217   21.2187   -2.4906 C.ar    1  UNL1        0.0003
     12 C          25.7616   19.9375   -4.7464 C.3     1  UNL1        0.0310
     13 C          23.0688   17.9306   -0.7815 C.2     1  UNL1        0.2490
     14 O          23.7125   16.7097   -0.1940 O.2     1  UNL1       -0.2699
     15 N          21.5741   18.0554   -0.7992 N.am    1  UNL1       -0.2761
     16 C          20.7231   16.9593   -0.2294 C.3     1  UNL1        0.0937
     17 C          19.7093   16.2705   -1.0942 C.3     1  UNL1        0.0215
     18 C          18.6936   15.3561   -0.4760 C.3     1  UNL1        0.0018
     19 C          20.9304   19.2763   -1.3866 C.3     1  UNL1        0.0937
     20 C          20.5103   20.4060   -0.4936 C.3     1  UNL1        0.0215
     21 C          19.6857   20.1292    0.7284 C.3     1  UNL1        0.0018
     22 C          24.8605   25.4030    1.2719 C.3     1  UNL1        0.1839
     23 O          25.3701   25.0462    2.6369 O.3     1  UNL1       -0.3775
     24 H          24.8423   25.2589    3.4225 H       1  UNL1        0.2106
     25 C          23.5348   26.0886    1.1218 C.3     1  UNL1        0.1339
     26 N          22.3436   25.5940    1.8877 N.4     1  UNL1        0.2597
     27 H          22.4613   24.8856    2.6121 H       1  UNL1        0.2040
     28 H          21.5337   25.2576    2.4084 H       1  UNL1        0.2040
     29 C          20.9794   26.1410    1.5882 C.3     1  UNL1        0.1299
     30 C          19.8397   25.2052    1.3140 C.ar    1  UNL1        0.0356
     31 C          19.7213   24.5396   -0.0251 C.ar    1  UNL1        0.0383
     32 C          18.5815   23.6039   -0.2993 C.ar    1  UNL1        0.1386
     33 C          17.5602   23.3336    0.7656 C.ar    1  UNL1        0.0369
     34 C          17.6786   23.9992    2.1046 C.ar    1  UNL1        0.0030
     35 C          18.8184   24.9350    2.3788 C.ar    1  UNL1        0.0016
     36 O          18.4631   22.9383   -1.6383 O.3     1  UNL1       -0.4714
     37 C          18.2584   23.7664   -2.8720 C.3     1  UNL1        0.2525
     38 C          26.8482   25.9339   -0.3147 C.3     1  UNL1        0.0487
     39 F          28.8298   29.1257    3.2750 F       1  UNL1       -0.2041
     40 C          27.9745   28.9055    2.0626 C.ar    1  UNL1        0.1421
     41 C          27.8390   27.5298    1.4802 C.ar    1  UNL1        0.0256
     42 C          26.9837   27.3096    0.2677 C.ar    1  UNL1       -0.0160
     43 C          26.2639   28.4650   -0.3623 C.ar    1  UNL1        0.0256
     44 C          26.3995   29.8406    0.2201 C.ar    1  UNL1        0.1421
     45 F          25.6797   30.9961   -0.4099 F       1  UNL1       -0.2041
     46 C          27.2547   30.0609    1.4325 C.ar    1  UNL1        0.0592
@<TRIPOS>UNITY_ATOM_ATTR
26 1
charge 1
@<TRIPOS>BOND
     1    39    40    1
     2    40    41   ar
     3    41    42   ar
     4    42    43   ar
     5    43    44   ar
     6    44    45    1
     7    44    46   ar
     8    42    38    1
     9     1    38    1
    10     1     2    1
    11     2     3   am
    12     3     4    2
    13     3     6    1
    14     6     7   ar
    15     7     8   ar
    16     8     9   ar
    17     9    10   ar
    18    10    11   ar
    19    10    12    1
    20     8    13    1
    21    13    14    2
    22    13    15   am
    23    15    16    1
    24    16    17    1
    25    17    18    1
    26    15    19    1
    27    19    20    1
    28    20    21    1
    29     1    22    1
    30    22    23    1
    31    22    25    1
    32    25    26    1
    33    26    29    1
    34    29    30    1
    35    30    31   ar
    36    31    32   ar
    37    32    36    1
    38    36    37    1
    39    32    33   ar
    40    33    34   ar
    41    34    35   ar
    42    46    40   ar
    43    11     6   ar
    44    35    30   ar
    45     2     5    1
    46    23    24    1
    47    26    27    1
    48    26    28    1
@<TRIPOS>MOLECULE
*****
 46 48 0 0 0
SMALL
GASTEIGER

@<TRIPOS>ATOM
      1 C          23.8960   28.5021    1.7376 C.3     1  UNL1        0.1089
      2 N          24.0571   29.6218    0.7525 N.am    1  UNL1       -0.2995
      3 C          23.9218   29.3531   -0.7170 C.2     1  UNL1        0.2459
      4 O          23.6254   27.9648   -1.2014 O.2     1  UNL1       -0.2701
      5 H          24.2517   30.5330    1.0705 H       1  UNL1        0.1498
      6 C          24.0830   30.4727   -1.7021 C.ar    1  UNL1        0.0532
      7 C          24.2810   31.8775   -1.2150 C.ar    1  UNL1        0.0090
      8 C          24.4422   32.9972   -2.2001 C.ar    1  UNL1        0.0534
      9 C          24.4053   32.7121   -3.6723 C.ar    1  UNL1        0.0003
     10 C          24.2073   31.3072   -4.1593 C.ar    1  UNL1       -0.0216
     11 C          24.0462   30.1876   -3.1743 C.ar    1  UNL1        0.0003
     12 C          24.1705   31.0220   -5.6315 C.3     1  UNL1        0.0310
     13 C          24.6402   34.4020   -1.7130 C.2     1  UNL1        0.2490
     14 O          23.4548   35.2357   -1.3258 O.2     1  UNL1       -0.2699
     15 N          26.0236   34.9732   -1.6130 N.am    1  UNL1       -0.2761
     16 C          26.2215   36.3781   -1.1259 C.3     1  UNL1        0.0937
     17 C          26.2028   36.6715    0.3450 C.3     1  UNL1        0.0215
     18 C          26.3065   38.0875    0.8287 C.3     1  UNL1        0.0018
     19 C          27.2090   34.1396   -2.0001 C.3     1  UNL1        0.0937
     20 C          27.9801   33.3983   -0.9485 C.3     1  UNL1        0.0215
     21 C          27.9697   31.8985   -0.9284 C.3     1  UNL1        0.0018
     22 C          22.5306   28.1339    2.2378 C.3     1  UNL1        0.1839
     23 O          21.4273   29.1501    2.2235 O.3     1  UNL1       -0.3775
     24 H          20.5444   28.9120    2.5469 H       1  UNL1        0.2106
     25 C          22.2684   26.7495    2.7522 C.3     1  UNL1        0.1339
     26 N          21.4471   25.7911    1.9416 N.4     1  UNL1        0.2597
     27 H          21.8842   24.9669    1.5294 H       1  UNL1        0.2040
     28 H          20.8886   25.1395    1.3903 H       1  UNL1        0.2040
     29 C          19.9830   26.0450    1.7371 C.3     1  UNL1        0.1299
     30 C          19.0815   24.9275    1.3030 C.ar    1  UNL1        0.0356
     31 C          19.1478   24.4142   -0.1049 C.ar    1  UNL1        0.0383
     32 C          18.2463   23.2967   -0.5390 C.ar    1  UNL1        0.1386
     33 C          17.2784   22.6925    0.4348 C.ar    1  UNL1        0.0369
     34 C          17.2121   23.2058    1.8427 C.ar    1  UNL1        0.0030
     35 C          18.1136   24.3233    2.2768 C.ar    1  UNL1        0.0016
     36 O          18.3126   22.7834   -1.9469 O.3     1  UNL1       -0.4714
     37 C          18.2529   23.7427   -3.0985 C.3     1  UNL1        0.2525
     38 C          25.1002   27.7506    2.2226 C.3     1  UNL1        0.0487
     39 F          28.2463   26.6154   -1.7540 F       1  UNL1       -0.2041
     40 C          27.3313   26.1681   -0.6528 C.ar    1  UNL1        0.1421
     41 C          26.6733   27.1830    0.2342 C.ar    1  UNL1        0.0256
     42 C          25.7583   26.7357    1.3355 C.ar    1  UNL1       -0.0160
     43 C          25.5013   25.2735    1.5496 C.ar    1  UNL1        0.0256
     44 C          26.1594   24.2586    0.6626 C.ar    1  UNL1        0.1421
     45 F          25.9024   22.7963    0.8767 F       1  UNL1       -0.2041
     46 C          27.0744   24.7059   -0.4387 C.ar    1  UNL1        0.0592
@<TRIPOS>UNITY_ATOM_ATTR
26 1
charge 1
@<TRIPOS>BOND
     1    39    40    1
     2    40    41   ar
     3    41    42   ar
     4    42    43   ar
     5    43    44   ar
     6    44    45    1
     7    44    46   ar
     8    42    38    1
     9     1    38    1
    10     1     2    1
    11     2     3   am
    12     3     4    2
    13     3     6    1
    14     6     7   ar
    15     7     8   ar
    16     8     9   ar
    17     9    10   ar
    18    10    11   ar
    19    10    12    1
    20     8    13    1
    21    13    14    2
    22    13    15   am
    23    15    16    1
    24    16    17    1
    25    17    18    1
    26    15    19    1
    27    19    20    1
    28    20    21    1
    29     1    22    1
    30    22    23    1
    31    22    25    1
    32    25    26    1
    33    26    29    1
    34    29    30    1
    35    30    31   ar
    36    31    32   ar
    37    32    36    1
    38    36    37    1
    39    32    33   ar
    40    33    34   ar
    41    34    35   ar
    42    46    40   ar
    43    11     6   ar
    44    35    30   ar
    45     2     5    1
    46    23    24    1
    47    26    27    1
    48    26    28    1
@<TRIPOS>MOLECULE
*****
 46 48 0 0 0
SMALL
GASTEIGER

@<TRIPOS>ATOM
      1 C          23.8751   28.5368    1.6406 C.3     1  UNL1        0.1089
      2 N          23.9782   29.6701    0.6633 N.am    1  UNL1       -0.2995
      3 C          23.8659   29.4037   -0.8086 C.2     1  UNL1        0.2459
      4 O          23.6505   28.0040   -1.3031 O.2     1  UNL1       -0.2701
      5 H          24.1195   30.5887    0.9879 H       1  UNL1        0.1498
      6 C          23.9689   30.5369   -1.7859 C.ar    1  UNL1        0.0532
      7 C          23.9956   31.9530   -1.2921 C.ar    1  UNL1        0.0090
      8 C          24.0987   33.0863   -2.2694 C.ar    1  UNL1        0.0534
      9 C          24.1750   32.8034   -3.7405 C.ar    1  UNL1        0.0003
     10 C          24.1482   31.3872   -4.2343 C.ar    1  UNL1       -0.0216
     11 C          24.0452   30.2540   -3.2570 C.ar    1  UNL1        0.0003
     12 C          24.2245   31.1043   -5.7054 C.3     1  UNL1        0.0310
     13 C          24.1254   34.5024   -1.7756 C.2     1  UNL1        0.2490
     14 O          22.8513   35.2887   -1.6833 O.2     1  UNL1       -0.2699
     15 N          25.4262   35.1323   -1.3742 N.am    1  UNL1       -0.2761
     16 C          25.4529   36.5485   -0.8803 C.3     1  UNL1        0.0937
     17 C          26.2017   36.8916    0.3733 C.3     1  UNL1        0.0215
     18 C          26.1541   38.2889    0.9166 C.3     1  UNL1        0.0018
     19 C          26.7003   34.3461   -1.4665 C.3     1  UNL1        0.0937
     20 C          27.6916   34.6489   -2.5509 C.3     1  UNL1        0.0215
     21 C          27.2135   34.9680   -3.9363 C.3     1  UNL1        0.0018
     22 C          22.5304   28.0923    2.1345 C.3     1  UNL1        0.1839
     23 O          21.4516   29.1039    2.3857 O.3     1  UNL1       -0.3775
     24 H          20.5820   28.8164    2.7051 H       1  UNL1        0.2106
     25 C          22.2643   26.6362    2.3773 C.3     1  UNL1        0.1339
     26 N          21.4447   25.8499    1.3974 N.4     1  UNL1        0.2597
     27 H          21.9020   25.3525    0.6333 H       1  UNL1        0.2040
     28 H          20.8874   25.3153    0.7310 H       1  UNL1        0.2040
     29 C          19.9526   25.7953    1.5411 C.3     1  UNL1        0.1299
     30 C          19.1902   24.6195    1.0062 C.ar    1  UNL1        0.0356
     31 C          18.6989   23.5554    1.9423 C.ar    1  UNL1        0.0383
     32 C          17.9364   22.3796    1.4074 C.ar    1  UNL1        0.1386
     33 C          17.6653   22.2679   -0.0637 C.ar    1  UNL1        0.0369
     34 C          18.1566   23.3319   -0.9998 C.ar    1  UNL1        0.0030
     35 C          18.9191   24.5078   -0.4648 C.ar    1  UNL1        0.0016
     36 O          17.4451   21.3155    2.3436 O.3     1  UNL1       -0.4714
     37 C          18.4147   20.3471    2.9533 C.3     1  UNL1        0.2525
     38 C          25.1169   27.8481    2.1240 C.3     1  UNL1        0.0487
     39 F          25.9656   22.8653    0.9191 F       1  UNL1       -0.2041
     40 C          26.2082   24.3232    0.6630 C.ar    1  UNL1        0.1421
     41 C          25.5413   25.3567    1.5215 C.ar    1  UNL1        0.0256
     42 C          25.7839   26.8146    1.2654 C.ar    1  UNL1       -0.0160
     43 C          26.6934   27.2391    0.1508 C.ar    1  UNL1        0.0256
     44 C          27.3604   26.2056   -0.7078 C.ar    1  UNL1        0.1421
     45 F          28.2700   26.6301   -1.8225 F       1  UNL1       -0.2041
     46 C          27.1178   24.7477   -0.4517 C.ar    1  UNL1        0.0592
@<TRIPOS>UNITY_ATOM_ATTR
26 1
charge 1
@<TRIPOS>BOND
     1    39    40    1
     2    40    41   ar
     3    41    42   ar
     4    42    43   ar
     5    43    44   ar
     6    44    45    1
     7    44    46   ar
     8    42    38    1
     9     1    38    1
    10     1     2    1
    11     2     3   am
    12     3     4    2
    13     3     6    1
    14     6     7   ar
    15     7     8   ar
    16     8     9   ar
    17     9    10   ar
    18    10    11   ar
    19    10    12    1
    20     8    13    1
    21    13    14    2
    22    13    15   am
    23    15    16    1
    24    16    17    1
    25    17    18    1
    26    15    19    1
    27    19    20    1
    28    20    21    1
    29     1    22    1
    30    22    23    1
    31    22    25    1
    32    25    26    1
    33    26    29    1
    34    29    30    1
    35    30    31   ar
    36    31    32   ar
    37    32    36    1
    38    36    37    1
    39    32    33   ar
    40    33    34   ar
    41    34    35   ar
    42    46    40   ar
    43    11     6   ar
    44    35    30   ar
    45     2     5    1
    46    23    24    1
    47    26    27    1
    48    26    28    1
@<TRIPOS>MOLECULE
*****
 48 51 0 0 0
SMALL
GASTEIGER

@<TRIPOS>ATOM
      1 C          22.9277   18.5985    0.0578 C.3     1  UNL1        0.1087
      2 N          23.9841   19.3662   -0.6803 N.am    1  UNL1       -0.2996
      3 C          24.1642   20.8327   -0.4215 C.2     1  UNL1        0.2459
      4 O          23.2879   21.5315    0.5755 O.2     1  UNL1       -0.2701
      5 H          24.5592   18.9076   -1.3347 H       1  UNL1        0.1498
      6 C          25.2205   21.6004   -1.1595 C.ar    1  UNL1        0.0532
      7 C          25.8132   22.8362   -0.5500 C.ar    1  UNL1        0.0090
      8 C          26.8696   23.6039   -1.2880 C.ar    1  UNL1        0.0534
      9 C          27.3333   23.1359   -2.6356 C.ar    1  UNL1        0.0003
     10 C          26.7405   21.9000   -3.2451 C.ar    1  UNL1       -0.0216
     11 C          25.6842   21.1323   -2.5071 C.ar    1  UNL1        0.0003
     12 C          27.2042   21.4320   -4.5927 C.3     1  UNL1        0.0310
     13 C          27.4623   24.8397   -0.6785 C.2     1  UNL1        0.2490
     14 O          28.8942   24.8429   -0.2315 O.2     1  UNL1       -0.2699
     15 N          26.6231   26.0724   -0.5160 N.am    1  UNL1       -0.2761
     16 C          27.2159   27.3082    0.0936 C.3     1  UNL1        0.0937
     17 C          27.3523   27.4183    1.5833 C.3     1  UNL1        0.0215
     18 C          26.3873   26.7008    2.4799 C.3     1  UNL1        0.0018
     19 C          25.1913   26.0693   -0.9630 C.3     1  UNL1        0.0937
     20 C          24.3387   27.2861   -0.7572 C.3     1  UNL1        0.0215
     21 C          23.1853   27.2405    0.2006 C.3     1  UNL1        0.0018
     22 C          22.7355   18.8128    1.5299 C.3     1  UNL1        0.1781
     23 O          23.9277   18.9304    2.4326 O.3     1  UNL1       -0.3777
     24 H          24.8229   18.8679    2.0644 H       1  UNL1        0.2106
     25 C          21.3511   18.9096    2.0993 C.3     1  UNL1        0.0840
     26 N          20.7220   17.9413    3.0567 N.4     1  UNL1        0.2539
     27 C          19.3349   18.4248    3.3604 C.3     1  UNL1        0.1322
     28 C          19.1069   19.6920    2.5907 C.3     1  UNL1        0.1760
     29 C          20.3530   19.9916    1.8113 C.3     1  UNL1        0.0931
     30 H          21.1604   17.1015    3.4347 H       1  UNL1        0.2035
     31 H          20.1661   17.3785    3.7005 H       1  UNL1        0.2035
     32 O          17.8529   20.5150    2.5990 O.3     1  UNL1       -0.3452
     33 C          17.9302   22.0015    2.4138 C.3     1  UNL1        0.1688
     34 C          18.1233   22.5775    1.0423 C.ar    1  UNL1        0.0073
     35 C          18.7040   23.9512    0.8808 C.ar    1  UNL1       -0.0019
     36 C          18.8972   24.5272   -0.4907 C.ar    1  UNL1       -0.0002
     37 C          18.5097   23.7297   -1.7006 C.ar    1  UNL1       -0.0000
     38 C          17.9290   22.3561   -1.5390 C.ar    1  UNL1       -0.0002
     39 C          17.7358   21.7800   -0.1676 C.ar    1  UNL1       -0.0019
     40 C          22.0635   17.6165   -0.6763 C.3     1  UNL1        0.0487
     41 F          17.3379   19.1420   -2.2066 F       1  UNL1       -0.2041
     42 C          18.7760   18.8554   -2.5223 C.ar    1  UNL1        0.1421
     43 C          19.7007   18.3793   -1.4415 C.ar    1  UNL1        0.0256
     44 C          21.1388   18.0927   -1.7572 C.ar    1  UNL1       -0.0160
     45 C          21.6523   18.2821   -3.1538 C.ar    1  UNL1        0.0256
     46 C          20.7276   18.7583   -4.2346 C.ar    1  UNL1        0.1421
     47 F          21.2410   18.9478   -5.6313 F       1  UNL1       -0.2041
     48 C          19.2895   19.0449   -3.9189 C.ar    1  UNL1        0.0592
@<TRIPOS>UNITY_ATOM_ATTR
26 1
charge 1
@<TRIPOS>BOND
     1    41    42    1
     2    42    43   ar
     3    43    44   ar
     4    44    45   ar
     5    45    46   ar
     6    46    47    1
     7    46    48   ar
     8    44    40    1
     9     1    40    1
    10     1     2    1
    11     2     3   am
    12     3     4    2
    13     3     6    1
    14     6     7   ar
    15     7     8   ar
    16     8     9   ar
    17     9    10   ar
    18    10    11   ar
    19    10    12    1
    20     8    13    1
    21    13    14    2
    22    13    15   am
    23    15    16    1
    24    16    17    1
    25    17    18    1
    26    15    19    1
    27    19    20    1
    28    20    21    1
    29     1    22    1
    30    22    23    1
    31    22    25    1
    32    25    26    1
    33    26    27    1
    34    27    28    1
    35    28    32    1
    36    32    33    1
    37    33    34    1
    38    34    35   ar
    39    35    36   ar
    40    36    37   ar
    41    37    38   ar
    42    38    39   ar
    43    28    29    1
    44    48    42   ar
    45    11     6   ar
    46    25    29    1
    47    39    34   ar
    48     2     5    1
    49    23    24    1
    50    26    30    1
    51    26    31    1
@<TRIPOS>MOLECULE
*****
 48 51 0 0 0
SMALL
GASTEIGER

@<TRIPOS>ATOM
      1 C          24.7268   27.9833   -0.2717 C.3     1  UNL1        0.1087
      2 N          23.8398   29.1455   -0.6074 N.am    1  UNL1       -0.2996
      3 C          23.5537   30.1938    0.4265 C.2     1  UNL1        0.2459
      4 O          24.1545   30.0800    1.7963 O.2     1  UNL1       -0.2701
      5 H          23.4455   29.2202   -1.5064 H       1  UNL1        0.1498
      6 C          22.6668   31.3560    0.0909 C.ar    1  UNL1        0.0532
      7 C          23.1227   32.3857   -0.9000 C.ar    1  UNL1        0.0090
      8 C          22.2358   33.5479   -1.2357 C.ar    1  UNL1        0.0534
      9 C          20.8929   33.6804   -0.5806 C.ar    1  UNL1        0.0003
     10 C          20.4370   32.6507    0.4104 C.ar    1  UNL1       -0.0216
     11 C          21.3240   31.4885    0.7461 C.ar    1  UNL1        0.0003
     12 C          19.0942   32.7831    1.0656 C.3     1  UNL1        0.0310
     13 C          22.6917   34.5776   -2.2266 C.2     1  UNL1        0.2490
     14 O          22.2465   34.4913   -3.6565 O.2     1  UNL1       -0.2699
     15 N          23.5928   35.6935   -1.7877 N.am    1  UNL1       -0.2761
     16 C          24.0487   36.7232   -2.7787 C.3     1  UNL1        0.0937
     17 C          25.3474   36.5402   -3.5066 C.3     1  UNL1        0.0215
     18 C          26.0661   35.2254   -3.4393 C.3     1  UNL1        0.0018
     19 C          24.0380   35.7798   -0.3580 C.3     1  UNL1        0.0937
     20 C          25.0229   36.8317    0.0587 C.3     1  UNL1        0.0215
     21 C          26.3377   36.4320    0.6601 C.3     1  UNL1        0.0018
     22 C          24.1246   26.6878    0.1854 C.3     1  UNL1        0.1781
     23 O          24.5586   25.3963   -0.4421 O.3     1  UNL1       -0.3777
     24 H          25.2287   25.3989   -1.1435 H       1  UNL1        0.2106
     25 C          23.0884   26.6837    1.2700 C.3     1  UNL1        0.0840
     26 N          23.2032   27.3649    2.6015 N.4     1  UNL1        0.2539
     27 C          21.9412   27.0999    3.3680 C.3     1  UNL1        0.1322
     28 C          21.0467   26.2549    2.5101 C.3     1  UNL1        0.1760
     29 C          21.7557   25.9977    1.2135 C.3     1  UNL1        0.0931
     30 H          23.9994   27.9122    2.9283 H       1  UNL1        0.2035
     31 H          23.1351   27.7692    3.5354 H       1  UNL1        0.2035
     32 O          19.6827   25.7549    2.8834 O.3     1  UNL1       -0.3452
     33 C          18.5640   25.8121    1.8857 C.3     1  UNL1        0.1688
     34 C          18.2827   24.6304    1.0056 C.ar    1  UNL1        0.0073
     35 C          18.8294   24.5882   -0.3907 C.ar    1  UNL1       -0.0019
     36 C          18.5482   23.4066   -1.2708 C.ar    1  UNL1       -0.0002
     37 C          17.7203   22.2671   -0.7547 C.ar    1  UNL1       -0.0000
     38 C          17.1737   22.3093    0.6415 C.ar    1  UNL1       -0.0002
     39 C          17.4549   23.4909    1.5216 C.ar    1  UNL1       -0.0019
     40 C          26.2159   28.1167   -0.3930 C.3     1  UNL1        0.0487
     41 F          28.3111   32.8672   -0.1840 F       1  UNL1       -0.2041
     42 C          27.8557   31.6823   -0.9831 C.ar    1  UNL1        0.1421
     43 C          27.2635   30.4920   -0.2885 C.ar    1  UNL1        0.0256
     44 C          26.8081   29.3071   -1.0877 C.ar    1  UNL1       -0.0160
     45 C          26.9450   29.3124   -2.5814 C.ar    1  UNL1        0.0256
     46 C          27.5372   30.5027   -3.2759 C.ar    1  UNL1        0.1421
     47 F          27.6740   30.5081   -4.7697 F       1  UNL1       -0.2041
     48 C          27.9925   31.6876   -2.4768 C.ar    1  UNL1        0.0592
@<TRIPOS>UNITY_ATOM_ATTR
26 1
charge 1
@<TRIPOS>BOND
     1    41    42    1
     2    42    43   ar
     3    43    44   ar
     4    44    45   ar
     5    45    46   ar
     6    46    47    1
     7    46    48   ar
     8    44    40    1
     9     1    40    1
    10     1     2    1
    11     2     3   am
    12     3     4    2
    13     3     6    1
    14     6     7   ar
    15     7     8   ar
    16     8     9   ar
    17     9    10   ar
    18    10    11   ar
    19    10    12    1
    20     8    13    1
    21    13    14    2
    22    13    15   am
    23    15    16    1
    24    16    17    1
    25    17    18    1
    26    15    19    1
    27    19    20    1
    28    20    21    1
    29     1    22    1
    30    22    23    1
    31    22    25    1
    32    25    26    1
    33    26    27    1
    34    27    28    1
    35    28    32    1
    36    32    33    1
    37    33    34    1
    38    34    35   ar
    39    35    36   ar
    40    36    37   ar
    41    37    38   ar
    42    38    39   ar
    43    28    29    1
    44    48    42   ar
    45    11     6   ar
    46    25    29    1
    47    39    34   ar
    48     2     5    1
    49    23    24    1
    50    26    30    1
    51    26    31    1
@<TRIPOS>MOLECULE
*****
 48 51 0 0 0
SMALL
GASTEIGER

@<TRIPOS>ATOM
      1 C          25.5891   25.6761   -0.4989 C.3     1  UNL1        0.1087
      2 N          25.4841   24.3448   -1.1821 N.am    1  UNL1       -0.2996
      3 C          25.5443   23.0813   -0.3758 C.2     1  UNL1        0.2459
      4 O          25.7094   23.1492    1.1136 O.2     1  UNL1       -0.2701
      5 H          25.3757   24.3003   -2.1596 H       1  UNL1        0.1498
      6 C          25.4393   21.7501   -1.0589 C.ar    1  UNL1        0.0532
      7 C          24.6656   20.6368   -0.4171 C.ar    1  UNL1        0.0090
      8 C          24.5606   19.3054   -1.1002 C.ar    1  UNL1        0.0534
      9 C          25.2293   19.0874   -2.4250 C.ar    1  UNL1        0.0003
     10 C          26.0031   20.2008   -3.0668 C.ar    1  UNL1       -0.0216
     11 C          26.1080   21.5321   -2.3838 C.ar    1  UNL1        0.0003
     12 C          26.6718   19.9828   -4.3917 C.3     1  UNL1        0.0310
     13 C          23.7869   18.1921   -0.4584 C.2     1  UNL1        0.2490
     14 O          24.4996   17.1622    0.3671 O.2     1  UNL1       -0.2699
     15 N          22.3005   18.1087   -0.6420 N.am    1  UNL1       -0.2761
     16 C          21.5268   16.9954   -0.0001 C.3     1  UNL1        0.0937
     17 C          21.1862   17.0629    1.4591 C.3     1  UNL1        0.0215
     18 C          19.9364   17.7616    1.9060 C.3     1  UNL1        0.0018
     19 C          21.5878   19.1386   -1.4674 C.3     1  UNL1        0.0937
     20 C          20.6275   20.0889   -0.8155 C.3     1  UNL1        0.0215
     21 C          21.0566   20.8859    0.3806 C.3     1  UNL1        0.0018
     22 C          24.3492   26.4658   -0.2004 C.3     1  UNL1        0.1781
     23 O          24.0129   27.6736   -1.0238 O.3     1  UNL1       -0.3777
     24 H          24.5972   27.9441   -1.7493 H       1  UNL1        0.2106
     25 C          23.4456   26.0476    0.9215 C.3     1  UNL1        0.0840
     26 N          23.8319   25.1949    2.0935 N.4     1  UNL1        0.2539
     27 C          22.6221   25.0290    2.9648 C.3     1  UNL1        0.1322
     28 C          21.4881   25.7791    2.3310 C.3     1  UNL1        0.1760
     29 C          21.9971   26.4086    1.0682 C.3     1  UNL1        0.0931
     30 H          24.7552   24.7977    2.2676 H       1  UNL1        0.2035
     31 H          23.9427   24.6332    2.9377 H       1  UNL1        0.2035
     32 O          20.0907   25.8817    2.8661 O.3     1  UNL1       -0.3452
     33 C          18.9317   25.9921    1.9204 C.3     1  UNL1        0.1688
     34 C          18.5139   24.8051    1.1040 C.ar    1  UNL1        0.0073
     35 C          18.9915   24.6626   -0.3109 C.ar    1  UNL1       -0.0019
     36 C          18.5738   23.4756   -1.1274 C.ar    1  UNL1       -0.0002
     37 C          17.6786   22.4312   -0.5291 C.ar    1  UNL1       -0.0000
     38 C          17.2012   22.5737    0.8857 C.ar    1  UNL1       -0.0002
     39 C          17.6188   23.7607    1.7022 C.ar    1  UNL1       -0.0019
     40 C          26.9340   26.2177   -0.1143 C.3     1  UNL1        0.0487
     41 F          27.4649   30.9617   -2.1668 F       1  UNL1       -0.2041
     42 C          27.3908   30.0671   -0.9651 C.ar    1  UNL1        0.1421
     43 C          27.1994   28.5898   -1.1405 C.ar    1  UNL1        0.0256
     44 C          27.1253   27.6951    0.0612 C.ar    1  UNL1       -0.0160
     45 C          27.2425   28.2779    1.4384 C.ar    1  UNL1        0.0256
     46 C          27.4339   29.7552    1.6138 C.ar    1  UNL1        0.1421
     47 F          27.5511   30.3380    2.9910 F       1  UNL1       -0.2041
     48 C          27.5080   30.6498    0.4121 C.ar    1  UNL1        0.0592
@<TRIPOS>UNITY_ATOM_ATTR
26 1
charge 1
@<TRIPOS>BOND
     1    41    42    1
     2    42    43   ar
     3    43    44   ar
     4    44    45   ar
     5    45    46   ar
     6    46    47    1
     7    46    48   ar
     8    44    40    1
     9     1    40    1
    10     1     2    1
    11     2     3   am
    12     3     4    2
    13     3     6    1
    14     6     7   ar
    15     7     8   ar
    16     8     9   ar
    17     9    10   ar
    18    10    11   ar
    19    10    12    1
    20     8    13    1
    21    13    14    2
    22    13    15   am
    23    15    16    1
    24    16    17    1
    25    17    18    1
    26    15    19    1
    27    19    20    1
    28    20    21    1
    29     1    22    1
    30    22    23    1
    31    22    25    1
    32    25    26    1
    33    26    27    1
    34    27    28    1
    35    28    32    1
    36    32    33    1
    37    33    34    1
    38    34    35   ar
    39    35    36   ar
    40    36    37   ar
    41    37    38   ar
    42    38    39   ar
    43    28    29    1
    44    48    42   ar
    45    11     6   ar
    46    25    29    1
    47    39    34   ar
    48     2     5    1
    49    23    24    1
    50    26    30    1
    51    26    31    1
@<TRIPOS>MOLECULE
*****
 48 51 0 0 0
SMALL
GASTEIGER

@<TRIPOS>ATOM
      1 C          22.6762   25.7848    1.8731 C.3     1  UNL1        0.1087
      2 N          22.7722   26.8480    0.8192 N.am    1  UNL1       -0.2996
      3 C          23.2079   28.2345    1.1902 C.2     1  UNL1        0.2459
      4 O          23.5477   28.5579    2.6150 O.2     1  UNL1       -0.2701
      5 H          22.5492   26.6357   -0.1159 H       1  UNL1        0.1498
      6 C          23.3039   29.2977    0.1364 C.ar    1  UNL1        0.0532
      7 C          24.3349   29.1883   -0.9475 C.ar    1  UNL1        0.0090
      8 C          24.4309   30.2515   -2.0014 C.ar    1  UNL1        0.0534
      9 C          23.4959   31.4240   -1.9712 C.ar    1  UNL1        0.0003
     10 C          22.4648   31.5333   -0.8872 C.ar    1  UNL1       -0.0216
     11 C          22.3688   30.4702    0.1666 C.ar    1  UNL1        0.0003
     12 C          21.5298   32.7058   -0.8570 C.3     1  UNL1        0.0310
     13 C          25.4620   30.1421   -3.0853 C.2     1  UNL1        0.2490
     14 O          25.2254   29.2356   -4.2568 O.2     1  UNL1       -0.2699
     15 N          26.7296   30.9393   -2.9978 N.am    1  UNL1       -0.2761
     16 C          27.7606   30.8299   -4.0819 C.3     1  UNL1        0.0937
     17 C          27.6508   31.6836   -5.3103 C.3     1  UNL1        0.0215
     18 C          27.9393   33.1534   -5.2304 C.3     1  UNL1        0.0018
     19 C          26.9662   31.8458   -1.8265 C.3     1  UNL1        0.0937
     20 C          27.9062   31.4298   -0.7340 C.3     1  UNL1        0.0215
     21 C          27.6076   30.2119    0.0890 C.3     1  UNL1        0.0018
     22 C          21.5175   25.7753    2.8255 C.3     1  UNL1        0.1781
     23 O          21.6198   26.4938    4.1383 O.3     1  UNL1       -0.3777
     24 H          22.4353   26.9645    4.3713 H       1  UNL1        0.2106
     25 C          20.2563   25.0474    2.4653 C.3     1  UNL1        0.0840
     26 N          18.9432   25.1504    3.1830 N.4     1  UNL1        0.2539
     27 C          17.9622   24.2553    2.4854 C.3     1  UNL1        0.1322
     28 C          18.6691   23.5992    1.3365 C.3     1  UNL1        0.1760
     29 C          20.0870   24.0887    1.3241 C.3     1  UNL1        0.0931
     30 H          18.7511   25.7277    4.0017 H       1  UNL1        0.2035
     31 H          17.9970   25.1159    3.5622 H       1  UNL1        0.2035
     32 O          18.0644   22.6247    0.3698 O.3     1  UNL1       -0.3452
     33 C          17.6362   21.2671    0.8426 C.3     1  UNL1        0.1688
     34 C          18.3910   20.5838    1.9442 C.ar    1  UNL1        0.0073
     35 C          19.7498   20.0074    1.6768 C.ar    1  UNL1       -0.0019
     36 C          20.5046   19.3242    2.7783 C.ar    1  UNL1       -0.0002
     37 C          19.9006   19.2173    4.1472 C.ar    1  UNL1       -0.0000
     38 C          18.5419   19.7936    4.4146 C.ar    1  UNL1       -0.0002
     39 C          17.7870   20.4769    3.3130 C.ar    1  UNL1       -0.0019
     40 C          23.7390   24.7311    1.9744 C.3     1  UNL1        0.0487
     41 F          28.1592   27.4598    1.8468 F       1  UNL1       -0.2041
     42 C          27.3074   26.3414    1.3236 C.ar    1  UNL1        0.1421
     43 C          25.9491   26.0954    1.9106 C.ar    1  UNL1        0.0256
     44 C          25.0973   24.9771    1.3874 C.ar    1  UNL1       -0.0160
     45 C          25.6038   24.1047    0.2773 C.ar    1  UNL1        0.0256
     46 C          26.9621   24.3507   -0.3097 C.ar    1  UNL1        0.1421
     47 F          27.4686   23.4783   -1.4199 F       1  UNL1       -0.2041
     48 C          27.8139   25.4691    0.2135 C.ar    1  UNL1        0.0592
@<TRIPOS>UNITY_ATOM_ATTR
26 1
charge 1
@<TRIPOS>BOND
     1    41    42    1
     2    42    43   ar
     3    43    44   ar
     4    44    45   ar
     5    45    46   ar
     6    46    47    1
     7    46    48   ar
     8    44    40    1
     9     1    40    1
    10     1     2    1
    11     2     3   am
    12     3     4    2
    13     3     6    1
    14     6     7   ar
    15     7     8   ar
    16     8     9   ar
    17     9    10   ar
    18    10    11   ar
    19    10    12    1
    20     8    13    1
    21    13    14    2
    22    13    15   am
    23    15    16    1
    24    16    17    1
    25    17    18    1
    26    15    19    1
    27    19    20    1
    28    20    21    1
    29     1    22    1
    30    22    23    1
    31    22    25    1
    32    25    26    1
    33    26    27    1
    34    27    28    1
    35    28    32    1
    36    32    33    1
    37    33    34    1
    38    34    35   ar
    39    35    36   ar
    40    36    37   ar
    41    37    38   ar
    42    38    39   ar
    43    28    29    1
    44    48    42   ar
    45    11     6   ar
    46    25    29    1
    47    39    34   ar
    48     2     5    1
    49    23    24    1
    50    26    30    1
    51    26    31    1
@<TRIPOS>MOLECULE
*****
 48 51 0 0 0
SMALL
GASTEIGER

@<TRIPOS>ATOM
      1 C          25.3608   24.9551    0.4281 C.3     1  UNL1        0.1087
      2 N          24.8737   23.6076   -0.0159 N.am    1  UNL1       -0.2996
      3 C          25.7856   22.6953   -0.7814 C.2     1  UNL1        0.2459
      4 O          27.1847   23.1306   -1.1030 O.2     1  UNL1       -0.2701
      5 H          23.9555   23.3220    0.1952 H       1  UNL1        0.1498
      6 C          25.2986   21.3479   -1.2254 C.ar    1  UNL1        0.0532
      7 C          24.5404   20.4729   -0.2717 C.ar    1  UNL1        0.0090
      8 C          24.0534   19.1253   -0.7157 C.ar    1  UNL1        0.0534
      9 C          24.3246   18.6529   -2.1133 C.ar    1  UNL1        0.0003
     10 C          25.0828   19.5280   -3.0669 C.ar    1  UNL1       -0.0216
     11 C          25.5698   20.8754   -2.6230 C.ar    1  UNL1        0.0003
     12 C          25.3540   19.0555   -4.4645 C.3     1  UNL1        0.0310
     13 C          23.2952   18.2504    0.2380 C.2     1  UNL1        0.2490
     14 O          24.0333   17.2936    1.1267 O.2     1  UNL1       -0.2699
     15 N          21.7988   18.3320    0.3029 N.am    1  UNL1       -0.2761
     16 C          21.0406   17.4570    1.2566 C.3     1  UNL1        0.0937
     17 C          19.8890   16.6319    0.7636 C.3     1  UNL1        0.0215
     18 C          20.0717   15.7134   -0.4081 C.3     1  UNL1        0.0018
     19 C          21.0606   19.2887   -0.5858 C.3     1  UNL1        0.0937
     20 C          20.8282   20.7014   -0.1380 C.3     1  UNL1        0.0215
     21 C          20.5551   20.9946    1.3075 C.3     1  UNL1        0.0018
     22 C          25.1355   25.4060    1.8409 C.3     1  UNL1        0.1781
     23 O          26.2642   25.3710    2.8282 O.3     1  UNL1       -0.3777
     24 H          27.1397   25.0569    2.5532 H       1  UNL1        0.2106
     25 C          23.7816   25.8918    2.2663 C.3     1  UNL1        0.0840
     26 N          23.4267   27.3018    2.6351 N.4     1  UNL1        0.2539
     27 C          21.9706   27.3344    2.9944 C.3     1  UNL1        0.1322
     28 C          21.4258   25.9445    2.8476 C.3     1  UNL1        0.1760
     29 C          22.5450   25.0530    2.3976 C.3     1  UNL1        0.0931
     30 H          24.0636   28.0985    2.6406 H       1  UNL1        0.2035
     31 H          23.0377   28.2037    2.9102 H       1  UNL1        0.2035
     32 O          20.0103   25.5207    3.1055 O.3     1  UNL1       -0.3452
     33 C          18.9476   25.7932    2.0826 C.3     1  UNL1        0.1688
     34 C          18.5132   24.7065    1.1444 C.ar    1  UNL1        0.0073
     35 C          19.0445   24.6698   -0.2580 C.ar    1  UNL1       -0.0019
     36 C          18.6101   23.5831   -1.1963 C.ar    1  UNL1       -0.0002
     37 C          17.6446   22.5331   -0.7323 C.ar    1  UNL1       -0.0000
     38 C          17.1134   22.5698    0.6700 C.ar    1  UNL1       -0.0002
     39 C          17.5477   23.6565    1.6083 C.ar    1  UNL1       -0.0019
     40 C          26.0730   25.8518   -0.5408 C.3     1  UNL1        0.0487
     41 F          27.5272   30.7030    0.6216 F       1  UNL1       -0.2041
     42 C          26.5236   29.7517    0.0403 C.ar    1  UNL1        0.1421
     43 C          26.8001   28.2774    0.0404 C.ar    1  UNL1        0.0256
     44 C          25.7965   27.3261   -0.5409 C.ar    1  UNL1       -0.0160
     45 C          24.5165   27.8490   -1.1222 C.ar    1  UNL1        0.0256
     46 C          24.2400   29.3233   -1.1222 C.ar    1  UNL1        0.1421
     47 F          22.9599   29.8463   -1.7035 F       1  UNL1       -0.2041
     48 C          25.2436   30.2746   -0.5410 C.ar    1  UNL1        0.0592
@<TRIPOS>UNITY_ATOM_ATTR
26 1
charge 1
@<TRIPOS>BOND
     1    41    42    1
     2    42    43   ar
     3    43    44   ar
     4    44    45   ar
     5    45    46   ar
     6    46    47    1
     7    46    48   ar
     8    44    40    1
     9     1    40    1
    10     1     2    1
    11     2     3   am
    12     3     4    2
    13     3     6    1
    14     6     7   ar
    15     7     8   ar
    16     8     9   ar
    17     9    10   ar
    18    10    11   ar
    19    10    12    1
    20     8    13    1
    21    13    14    2
    22    13    15   am
    23    15    16    1
    24    16    17    1
    25    17    18    1
    26    15    19    1
    27    19    20    1
    28    20    21    1
    29     1    22    1
    30    22    23    1
    31    22    25    1
    32    25    26    1
    33    26    27    1
    34    27    28    1
    35    28    32    1
    36    32    33    1
    37    33    34    1
    38    34    35   ar
    39    35    36   ar
    40    36    37   ar
    41    37    38   ar
    42    38    39   ar
    43    28    29    1
    44    48    42   ar
    45    11     6   ar
    46    25    29    1
    47    39    34   ar
    48     2     5    1
    49    23    24    1
    50    26    30    1
    51    26    31    1
@<TRIPOS>MOLECULE
*****
 48 51 0 0 0
SMALL
GASTEIGER

@<TRIPOS>ATOM
      1 C          25.8121   27.9544    1.5177 C.3     1  UNL1        0.1087
      2 N          26.0486   28.9710    0.4404 N.am    1  UNL1       -0.2996
      3 C          27.3386   29.7354    0.4006 C.2     1  UNL1        0.2459
      4 O          28.3921   29.4832    1.4382 O.2     1  UNL1       -0.2701
      5 H          25.3572   29.1365   -0.2406 H       1  UNL1        0.1498
      6 C          27.5752   30.7520   -0.6767 C.ar    1  UNL1        0.0532
      7 C          28.1304   32.1007   -0.3263 C.ar    1  UNL1        0.0090
      8 C          28.3670   33.1173   -1.4036 C.ar    1  UNL1        0.0534
      9 C          28.0482   32.7853   -2.8313 C.ar    1  UNL1        0.0003
     10 C          27.4930   31.4365   -3.1816 C.ar    1  UNL1       -0.0216
     11 C          27.2564   30.4199   -2.1043 C.ar    1  UNL1        0.0003
     12 C          27.1742   31.1044   -4.6092 C.3     1  UNL1        0.0310
     13 C          28.9222   34.4660   -1.0533 C.2     1  UNL1        0.2490
     14 O          27.9936   35.6153   -0.7944 O.2     1  UNL1       -0.2699
     15 N          30.4061   34.6655   -0.9617 N.am    1  UNL1       -0.2761
     16 C          30.9613   36.0142   -0.6114 C.3     1  UNL1        0.0937
     17 C          32.2155   36.1200    0.2045 C.3     1  UNL1        0.0215
     18 C          32.5854   37.4247    0.8456 C.3     1  UNL1        0.0018
     19 C          31.3347   33.5163   -1.2206 C.3     1  UNL1        0.0937
     20 C          31.7226   33.1675   -2.6270 C.3     1  UNL1        0.0215
     21 C          31.5568   34.1778   -3.7232 C.3     1  UNL1        0.0018
     22 C          24.6161   28.0765    2.4146 C.3     1  UNL1        0.1781
     23 O          24.6792   28.9471    3.6346 O.3     1  UNL1       -0.3777
     24 H          25.4935   29.4310    3.8434 H       1  UNL1        0.2106
     25 C          23.3569   27.3281    2.0917 C.3     1  UNL1        0.0840
     26 N          23.0748   26.5845    0.8198 N.4     1  UNL1        0.2539
     27 C          21.7023   25.9887    0.9259 C.3     1  UNL1        0.1322
     28 C          21.1361   26.3640    2.2633 C.3     1  UNL1        0.1760
     29 C          22.1587   27.1918    2.9838 C.3     1  UNL1        0.0931
     30 H          23.7056   26.4991    0.0228 H       1  UNL1        0.2035
     31 H          22.7416   26.0442    0.0214 H       1  UNL1        0.2035
     32 O          19.7848   25.9791    2.7881 O.3     1  UNL1       -0.3452
     33 C          18.5993   25.9655    1.8691 C.3     1  UNL1        0.1688
     34 C          18.2874   24.7381    1.0653 C.ar    1  UNL1        0.0073
     35 C          17.4606   23.6393    1.6646 C.ar    1  UNL1       -0.0019
     36 C          17.1486   22.4118    0.8609 C.ar    1  UNL1       -0.0002
     37 C          17.6635   22.2831   -0.5422 C.ar    1  UNL1       -0.0000
     38 C          18.4903   23.3819   -1.1414 C.ar    1  UNL1       -0.0002
     39 C          18.8023   24.6094   -0.3377 C.ar    1  UNL1       -0.0019
     40 C          26.7718   26.8157    1.6981 C.3     1  UNL1        0.0487
     41 F          28.4962   24.8000   -2.7699 F       1  UNL1       -0.2041
     42 C          27.6603   24.6846   -1.5298 C.ar    1  UNL1        0.1421
     43 C          27.6340   25.8078   -0.5359 C.ar    1  UNL1        0.0256
     44 C          26.7981   25.6925    0.7042 C.ar    1  UNL1       -0.0160
     45 C          25.9885   24.4540    0.9505 C.ar    1  UNL1        0.0256
     46 C          26.0148   23.3308   -0.0433 C.ar    1  UNL1        0.1421
     47 F          25.2052   22.0923    0.2030 F       1  UNL1       -0.2041
     48 C          26.8507   23.4462   -1.2835 C.ar    1  UNL1        0.0592
@<TRIPOS>UNITY_ATOM_ATTR
26 1
charge 1
@<TRIPOS>BOND
     1    41    42    1
     2    42    43   ar
     3    43    44   ar
     4    44    45   ar
     5    45    46   ar
     6    46    47    1
     7    46    48   ar
     8    44    40    1
     9     1    40    1
    10     1     2    1
    11     2     3   am
    12     3     4    2
    13     3     6    1
    14     6     7   ar
    15     7     8   ar
    16     8     9   ar
    17     9    10   ar
    18    10    11   ar
    19    10    12    1
    20     8    13    1
    21    13    14    2
    22    13    15   am
    23    15    16    1
    24    16    17    1
    25    17    18    1
    26    15    19    1
    27    19    20    1
    28    20    21    1
    29     1    22    1
    30    22    23    1
    31    22    25    1
    32    25    26    1
    33    26    27    1
    34    27    28    1
    35    28    32    1
    36    32    33    1
    37    33    34    1
    38    34    35   ar
    39    35    36   ar
    40    36    37   ar
    41    37    38   ar
    42    38    39   ar
    43    28    29    1
    44    48    42   ar
    45    11     6   ar
    46    25    29    1
    47    39    34   ar
    48     2     5    1
    49    23    24    1
    50    26    30    1
    51    26    31    1
@<TRIPOS>MOLECULE
*****
 48 51 0 0 0
SMALL
GASTEIGER

@<TRIPOS>ATOM
      1 C          23.4527   28.4689   -0.0280 C.3     1  UNL1        0.1087
      2 N          23.5242   29.6345   -0.9695 N.am    1  UNL1       -0.2996
      3 C          24.6612   30.6081   -0.8727 C.2     1  UNL1        0.2459
      4 O          25.7267   30.4161    0.1655 O.2     1  UNL1       -0.2701
      5 H          22.8249   29.7605   -1.6509 H       1  UNL1        0.1498
      6 C          24.7328   31.7736   -1.8142 C.ar    1  UNL1        0.0532
      7 C          24.4126   33.1545   -1.3238 C.ar    1  UNL1        0.0090
      8 C          24.4841   34.3201   -2.2653 C.ar    1  UNL1        0.0534
      9 C          24.8759   34.1048   -3.6971 C.ar    1  UNL1        0.0003
     10 C          25.1961   32.7237   -4.1875 C.ar    1  UNL1       -0.0216
     11 C          25.1245   31.5582   -3.2460 C.ar    1  UNL1        0.0003
     12 C          25.5878   32.5084   -5.6193 C.3     1  UNL1        0.0310
     13 C          24.1639   35.7010   -1.7749 C.2     1  UNL1        0.2490
     14 O          22.7362   36.1093   -1.5627 O.2     1  UNL1       -0.2699
     15 N          25.2714   36.6737   -1.4968 N.am    1  UNL1       -0.2761
     16 C          24.9511   38.0547   -1.0064 C.3     1  UNL1        0.0937
     17 C          24.9132   38.3376    0.4662 C.3     1  UNL1        0.0215
     18 C          26.1353   38.8605    1.1612 C.3     1  UNL1        0.0018
     19 C          26.6990   36.2655   -1.7089 C.3     1  UNL1        0.0937
     20 C          27.5152   35.7641   -0.5546 C.3     1  UNL1        0.0215
     21 C          28.8399   36.3948   -0.2426 C.3     1  UNL1        0.0018
     22 C          23.0377   28.6809    1.3978 C.3     1  UNL1        0.1781
     23 O          23.4636   29.9209    2.1264 O.3     1  UNL1       -0.3777
     24 H          24.0073   30.5858    1.6756 H       1  UNL1        0.2106
     25 C          22.1969   27.6527    2.0950 C.3     1  UNL1        0.0840
     26 N          22.6700   26.6915    3.1448 N.4     1  UNL1        0.2539
     27 C          21.5009   25.8500    3.5634 C.3     1  UNL1        0.1322
     28 C          20.3053   26.2913    2.7722 C.3     1  UNL1        0.1760
     29 C          20.7355   27.4054    1.8647 C.3     1  UNL1        0.0931
     30 H          23.6199   26.6222    3.5100 H       1  UNL1        0.2035
     31 H          22.8406   25.9850    3.8605 H       1  UNL1        0.2035
     32 O          18.9224   25.7189    2.8712 O.3     1  UNL1       -0.3452
     33 C          18.6964   24.2567    2.6243 C.3     1  UNL1        0.1688
     34 C          18.4610   23.7592    1.2290 C.ar    1  UNL1        0.0073
     35 C          18.9455   24.5588    0.0559 C.ar    1  UNL1       -0.0019
     36 C          18.7101   24.0613   -1.3395 C.ar    1  UNL1       -0.0002
     37 C          17.9901   22.7642   -1.5619 C.ar    1  UNL1       -0.0000
     38 C          17.5056   21.9647   -0.3889 C.ar    1  UNL1       -0.0002
     39 C          17.7410   22.4621    1.0066 C.ar    1  UNL1       -0.0019
     40 C          23.7962   27.0914   -0.5123 C.3     1  UNL1        0.0487
     41 F          26.7950   24.4558    2.8135 F       1  UNL1       -0.2041
     42 C          26.6199   25.1635    1.5025 C.ar    1  UNL1        0.1421
     43 C          25.2957   25.7736    1.1506 C.ar    1  UNL1        0.0256
     44 C          25.1206   26.4813   -0.1604 C.ar    1  UNL1       -0.0160
     45 C          26.2698   26.5787   -1.1194 C.ar    1  UNL1        0.0256
     46 C          27.5941   25.9685   -0.7675 C.ar    1  UNL1        0.1421
     47 F          28.7434   26.0660   -1.7265 F       1  UNL1       -0.2041
     48 C          27.7692   25.2609    0.5435 C.ar    1  UNL1        0.0592
@<TRIPOS>UNITY_ATOM_ATTR
26 1
charge 1
@<TRIPOS>BOND
     1    41    42    1
     2    42    43   ar
     3    43    44   ar
     4    44    45   ar
     5    45    46   ar
     6    46    47    1
     7    46    48   ar
     8    44    40    1
     9     1    40    1
    10     1     2    1
    11     2     3   am
    12     3     4    2
    13     3     6    1
    14     6     7   ar
    15     7     8   ar
    16     8     9   ar
    17     9    10   ar
    18    10    11   ar
    19    10    12    1
    20     8    13    1
    21    13    14    2
    22    13    15   am
    23    15    16    1
    24    16    17    1
    25    17    18    1
    26    15    19    1
    27    19    20    1
    28    20    21    1
    29     1    22    1
    30    22    23    1
    31    22    25    1
    32    25    26    1
    33    26    27    1
    34    27    28    1
    35    28    32    1
    36    32    33    1
    37    33    34    1
    38    34    35   ar
    39    35    36   ar
    40    36    37   ar
    41    37    38   ar
    42    38    39   ar
    43    28    29    1
    44    48    42   ar
    45    11     6   ar
    46    25    29    1
    47    39    34   ar
    48     2     5    1
    49    23    24    1
    50    26    30    1
    51    26    31    1
@<TRIPOS>MOLECULE
*****
 48 51 0 0 0
SMALL
GASTEIGER

@<TRIPOS>ATOM
      1 C          24.3216   19.7537   -0.7329 C.3     1  UNL1        0.1087
      2 N          25.2893   20.8446   -1.0847 N.am    1  UNL1       -0.2996
      3 C          25.1626   22.1949   -0.4440 C.2     1  UNL1        0.2459
      4 O          24.0681   22.4544    0.5485 O.2     1  UNL1       -0.2701
      5 H          26.0077   20.6742   -1.7360 H       1  UNL1        0.1498
      6 C          26.1302   23.2857   -0.7957 C.ar    1  UNL1        0.0532
      7 C          26.1198   24.5739   -0.0274 C.ar    1  UNL1        0.0090
      8 C          27.0875   25.6648   -0.3790 C.ar    1  UNL1        0.0534
      9 C          28.0656   25.4674   -1.4990 C.ar    1  UNL1        0.0003
     10 C          28.0760   24.1791   -2.2673 C.ar    1  UNL1       -0.0216
     11 C          27.1083   23.0883   -1.9157 C.ar    1  UNL1        0.0003
     12 C          29.0541   23.9817   -3.3873 C.3     1  UNL1        0.0310
     13 C          27.0770   26.9531    0.3893 C.2     1  UNL1        0.2490
     14 O          27.9551   27.1146    1.5947 O.2     1  UNL1       -0.2699
     15 N          26.1885   28.0798   -0.0478 N.am    1  UNL1       -0.2761
     16 C          26.1781   29.3681    0.7206 C.3     1  UNL1        0.0937
     17 C          27.2839   30.3636    0.5305 C.3     1  UNL1        0.0215
     18 C          27.7081   30.7583   -0.8530 C.3     1  UNL1        0.0018
     19 C          25.3104   27.9183   -1.2531 C.3     1  UNL1        0.0937
     20 C          23.8805   27.4960   -1.0882 C.3     1  UNL1        0.0215
     21 C          23.3868   27.0253    0.2476 C.3     1  UNL1        0.0018
     22 C          24.1302   19.3543    0.7002 C.3     1  UNL1        0.1781
     23 O          25.3166   19.2343    1.6102 O.3     1  UNL1       -0.3777
     24 H          26.2076   19.4151    1.2719 H       1  UNL1        0.2106
     25 C          22.7524   19.0747    1.2233 C.3     1  UNL1        0.0840
     26 N          22.3220   17.8395    1.9575 N.4     1  UNL1        0.2539
     27 C          20.8667   17.9827    2.2920 C.3     1  UNL1        0.1322
     28 C          20.3979   19.3063    1.7645 C.3     1  UNL1        0.1760
     29 C          21.5633   19.9812    1.1040 C.3     1  UNL1        0.0931
     30 H          22.9148   17.0423    2.1887 H       1  UNL1        0.2035
     31 H          21.8850   17.0687    2.4627 H       1  UNL1        0.2035
     32 O          19.0077   19.8581    1.8776 O.3     1  UNL1       -0.3452
     33 C          18.7947   21.3395    1.9785 C.3     1  UNL1        0.1688
     34 C          18.7045   22.1708    0.7332 C.ar    1  UNL1        0.0073
     35 C          18.9336   23.6517    0.8019 C.ar    1  UNL1       -0.0019
     36 C          18.8434   24.4831   -0.4434 C.ar    1  UNL1       -0.0002
     37 C          18.5240   23.8337   -1.7573 C.ar    1  UNL1       -0.0000
     38 C          18.2949   22.3529   -1.8260 C.ar    1  UNL1       -0.0002
     39 C          18.3851   21.5214   -0.5807 C.ar    1  UNL1       -0.0019
     40 C          23.5453   19.0624   -1.8143 C.3     1  UNL1        0.0487
     41 F          21.1905   14.4327   -1.6683 F       1  UNL1       -0.2041
     42 C          22.4290   15.2544   -1.8709 C.ar    1  UNL1        0.1421
     43 C          22.3680   16.7475   -1.7413 C.ar    1  UNL1        0.0256
     44 C          23.6064   17.5692   -1.9439 C.ar    1  UNL1       -0.0160
     45 C          24.9060   16.8977   -2.2760 C.ar    1  UNL1        0.0256
     46 C          24.9670   15.4046   -2.4056 C.ar    1  UNL1        0.1421
     47 F          26.2666   14.7331   -2.7378 F       1  UNL1       -0.2041
     48 C          23.7285   14.5829   -2.2030 C.ar    1  UNL1        0.0592
@<TRIPOS>UNITY_ATOM_ATTR
26 1
charge 1
@<TRIPOS>BOND
     1    41    42    1
     2    42    43   ar
     3    43    44   ar
     4    44    45   ar
     5    45    46   ar
     6    46    47    1
     7    46    48   ar
     8    44    40    1
     9     1    40    1
    10     1     2    1
    11     2     3   am
    12     3     4    2
    13     3     6    1
    14     6     7   ar
    15     7     8   ar
    16     8     9   ar
    17     9    10   ar
    18    10    11   ar
    19    10    12    1
    20     8    13    1
    21    13    14    2
    22    13    15   am
    23    15    16    1
    24    16    17    1
    25    17    18    1
    26    15    19    1
    27    19    20    1
    28    20    21    1
    29     1    22    1
    30    22    23    1
    31    22    25    1
    32    25    26    1
    33    26    27    1
    34    27    28    1
    35    28    32    1
    36    32    33    1
    37    33    34    1
    38    34    35   ar
    39    35    36   ar
    40    36    37   ar
    41    37    38   ar
    42    38    39   ar
    43    28    29    1
    44    48    42   ar
    45    11     6   ar
    46    25    29    1
    47    39    34   ar
    48     2     5    1
    49    23    24    1
    50    26    30    1
    51    26    31    1
@<TRIPOS>MOLECULE
*****
 48 51 0 0 0
SMALL
GASTEIGER

@<TRIPOS>ATOM
      1 C          25.1845   29.8114    1.1679 C.3     1  UNL1        0.1087
      2 N          25.6269   30.6314   -0.0077 N.am    1  UNL1       -0.2996
      3 C          25.2876   30.1896   -1.4005 C.2     1  UNL1        0.2459
      4 O          24.5060   28.9278   -1.6176 O.2     1  UNL1       -0.2701
      5 H          26.1398   31.4595    0.1348 H       1  UNL1        0.1498
      6 C          25.7299   31.0095   -2.5761 C.ar    1  UNL1        0.0532
      7 C          24.8446   31.1319   -3.7806 C.ar    1  UNL1        0.0090
      8 C          25.2869   31.9519   -4.9563 C.ar    1  UNL1        0.0534
      9 C          26.6146   32.6493   -4.9274 C.ar    1  UNL1        0.0003
     10 C          27.4999   32.5268   -3.7227 C.ar    1  UNL1       -0.0216
     11 C          27.0576   31.7069   -2.5471 C.ar    1  UNL1        0.0003
     12 C          28.8276   33.2242   -3.6937 C.3     1  UNL1        0.0310
     13 C          24.4015   32.0743   -6.1609 C.2     1  UNL1        0.2490
     14 O          23.6629   33.3536   -6.4220 O.2     1  UNL1       -0.2699
     15 N          24.2546   30.9176   -7.1045 N.am    1  UNL1       -0.2761
     16 C          23.3692   31.0401   -8.3091 C.3     1  UNL1        0.0937
     17 C          22.8760   29.8067   -9.0060 C.3     1  UNL1        0.0215
     18 C          21.9950   29.9292  -10.2138 C.3     1  UNL1        0.0018
     19 C          24.9931   29.6383   -6.8435 C.3     1  UNL1        0.0937
     20 C          26.4015   29.4721   -7.3325 C.3     1  UNL1        0.0215
     21 C          27.4738   29.0138   -6.3891 C.3     1  UNL1        0.0018
     22 C          23.7472   29.8295    1.5966 C.3     1  UNL1        0.1781
     23 O          23.0159   31.1338    1.7142 O.3     1  UNL1       -0.3777
     24 H          23.4725   31.9657    1.5129 H       1  UNL1        0.2106
     25 C          23.0412   28.5431    1.9078 C.3     1  UNL1        0.0840
     26 N          22.8044   27.9760    3.2762 N.4     1  UNL1        0.2539
     27 C          22.0649   26.6804    3.1195 C.3     1  UNL1        0.1322
     28 C          21.8446   26.4468    1.6542 C.3     1  UNL1        0.1760
     29 C          22.4480   27.5980    0.9054 C.3     1  UNL1        0.0931
     30 H          23.0953   28.3974    4.1584 H       1  UNL1        0.2035
     31 H          22.5709   27.4699    4.1304 H       1  UNL1        0.2035
     32 O          21.1439   25.2689    1.0447 O.3     1  UNL1       -0.3452
     33 C          19.6712   25.3333    0.7676 C.3     1  UNL1        0.1688
     34 C          18.8783   24.0677    0.6269 C.ar    1  UNL1        0.0073
     35 C          18.5934   23.5088   -0.7357 C.ar    1  UNL1       -0.0019
     36 C          17.8006   22.2433   -0.8765 C.ar    1  UNL1       -0.0002
     37 C          17.2927   21.5366    0.3453 C.ar    1  UNL1       -0.0000
     38 C          17.5776   22.0955    1.7078 C.ar    1  UNL1       -0.0002
     39 C          18.3704   23.3610    1.8486 C.ar    1  UNL1       -0.0019
     40 C          26.1795   28.9735    1.9148 C.3     1  UNL1        0.0487
     41 F          26.4153   23.8246    2.5734 F       1  UNL1       -0.2041
     42 C          26.6684   25.0394    1.7306 C.ar    1  UNL1        0.1421
     43 C          26.2974   26.3990    2.2440 C.ar    1  UNL1        0.0256
     44 C          26.5505   27.6138    1.4012 C.ar    1  UNL1       -0.0160
     45 C          27.1745   27.4689    0.0449 C.ar    1  UNL1        0.0256
     46 C          27.5455   26.1092   -0.4685 C.ar    1  UNL1        0.1421
     47 F          28.1695   25.9643   -1.8249 F       1  UNL1       -0.2041
     48 C          27.2924   24.8945    0.3743 C.ar    1  UNL1        0.0592
@<TRIPOS>UNITY_ATOM_ATTR
26 1
charge 1
@<TRIPOS>BOND
     1    41    42    1
     2    42    43   ar
     3    43    44   ar
     4    44    45   ar
     5    45    46   ar
     6    46    47    1
     7    46    48   ar
     8    44    40    1
     9     1    40    1
    10     1     2    1
    11     2     3   am
    12     3     4    2
    13     3     6    1
    14     6     7   ar
    15     7     8   ar
    16     8     9   ar
    17     9    10   ar
    18    10    11   ar
    19    10    12    1
    20     8    13    1
    21    13    14    2
    22    13    15   am
    23    15    16    1
    24    16    17    1
    25    17    18    1
    26    15    19    1
    27    19    20    1
    28    20    21    1
    29     1    22    1
    30    22    23    1
    31    22    25    1
    32    25    26    1
    33    26    27    1
    34    27    28    1
    35    28    32    1
    36    32    33    1
    37    33    34    1
    38    34    35   ar
    39    35    36   ar
    40    36    37   ar
    41    37    38   ar
    42    38    39   ar
    43    28    29    1
    44    48    42   ar
    45    11     6   ar
    46    25    29    1
    47    39    34   ar
    48     2     5    1
    49    23    24    1
    50    26    30    1
    51    26    31    1
@<TRIPOS>MOLECULE
*****
 45 47 0 0 0
SMALL
GASTEIGER

@<TRIPOS>ATOM
      1 C          24.1676   25.5305    1.8633 C.3     1  UNL1        0.1089
      2 N          24.3903   26.9610    1.4711 N.am    1  UNL1       -0.2995
      3 C          24.2289   27.3800    0.0399 C.2     1  UNL1        0.2459
      4 O          23.8449   26.3685   -0.9990 O.2     1  UNL1       -0.2701
      5 H          24.6424   27.6249    2.1529 H       1  UNL1        0.1498
      6 C          24.4516   28.8107   -0.3524 C.ar    1  UNL1        0.0532
      7 C          23.5152   29.8764    0.1347 C.ar    1  UNL1        0.0090
      8 C          23.7379   31.3069   -0.2576 C.ar    1  UNL1        0.0534
      9 C          24.8969   31.6717   -1.1371 C.ar    1  UNL1        0.0003
     10 C          25.8333   30.6060   -1.6243 C.ar    1  UNL1       -0.0216
     11 C          25.6106   29.1754   -1.2319 C.ar    1  UNL1        0.0003
     12 C          26.9924   30.9708   -2.5038 C.3     1  UNL1        0.0310
     13 C          22.8015   32.3727    0.2296 C.2     1  UNL1        0.2490
     14 O          22.7805   32.7458    1.6823 O.2     1  UNL1       -0.2699
     15 N          21.8861   33.0654   -0.7359 N.am    1  UNL1       -0.2761
     16 C          20.9497   34.1312   -0.2488 C.3     1  UNL1        0.0937
     17 C          19.5273   33.7869    0.0797 C.3     1  UNL1        0.0215
     18 C          19.2273   32.6661    1.0303 C.3     1  UNL1        0.0018
     19 C          21.9071   32.6923   -2.1887 C.3     1  UNL1        0.0937
     20 C          22.5834   33.5885   -3.1835 C.3     1  UNL1        0.0215
     21 C          23.4902   34.6854   -2.7097 C.3     1  UNL1        0.0018
     22 C          22.7972   25.0656    2.2583 C.3     1  UNL1        0.1839
     23 O          22.3201   23.7038    1.8488 O.3     1  UNL1       -0.3775
     24 H          21.4340   23.4033    2.1042 H       1  UNL1        0.2106
     25 C          21.9040   25.9627    3.0630 C.3     1  UNL1        0.1339
     26 N          20.4500   25.6287    3.2194 N.4     1  UNL1        0.2597
     27 H          20.1180   25.1849    4.0756 H       1  UNL1        0.2040
     28 H          21.1067   25.4120    3.9692 H       1  UNL1        0.2040
     29 C          19.4844   25.9474    2.1166 C.3     1  UNL1        0.1298
     30 I          18.4895   23.3539   -2.2747 I       1  UNL1       -0.0425
     31 C          18.2807   23.5418   -0.8012 C.ar    1  UNL1        0.0299
     32 C          18.9869   24.6506   -0.0790 C.ar    1  UNL1        0.0072
     33 C          18.7781   24.8385    1.3944 C.ar    1  UNL1        0.0330
     34 C          17.8631   23.9175    2.1457 C.ar    1  UNL1        0.0014
     35 C          17.1569   22.8086    1.4235 C.ar    1  UNL1        0.0003
     36 C          17.3657   22.6208   -0.0500 C.ar    1  UNL1        0.0058
     37 C          25.3154   24.5647    1.8606 C.3     1  UNL1        0.0487
     38 C          25.9279   24.1314    0.5617 C.ar    1  UNL1       -0.0160
     39 C          27.0582   24.9175   -0.0336 C.ar    1  UNL1        0.0256
     40 C          27.6708   24.4843   -1.3325 C.ar    1  UNL1        0.1421
     41 F          28.8011   25.2704   -1.9277 F       1  UNL1       -0.2041
     42 C          27.1529   23.2649   -2.0362 C.ar    1  UNL1        0.0592
     43 C          26.0226   22.4788   -1.4409 C.ar    1  UNL1        0.1421
     44 F          25.5047   21.2595   -2.1445 F       1  UNL1       -0.2041
     45 C          25.4100   22.9121   -0.1419 C.ar    1  UNL1        0.0256
@<TRIPOS>UNITY_ATOM_ATTR
26 1
charge 1
@<TRIPOS>BOND
     1    30    31    1
     2    31    32   ar
     3    32    33   ar
     4    33    34   ar
     5    34    35   ar
     6    35    36   ar
     7    33    29    1
     8    29    26    1
     9    26    25    1
    10    25    22    1
    11    22    23    1
    12    22     1    1
    13     1     2    1
    14     2     3   am
    15     3     4    2
    16     3     6    1
    17     6     7   ar
    18     7     8   ar
    19     8     9   ar
    20     9    10   ar
    21    10    11   ar
    22    10    12    1
    23     8    13    1
    24    13    14    2
    25    13    15   am
    26    15    16    1
    27    16    17    1
    28    17    18    1
    29    15    19    1
    30    19    20    1
    31    20    21    1
    32     1    37    1
    33    37    38    1
    34    38    39   ar
    35    39    40   ar
    36    40    41    1
    37    40    42   ar
    38    42    43   ar
    39    43    44    1
    40    43    45   ar
    41    36    31   ar
    42    11     6   ar
    43    45    38   ar
    44    26    27    1
    45    26    28    1
    46    23    24    1
    47     2     5    1
@<TRIPOS>MOLECULE
*****
 45 47 0 0 0
SMALL
GASTEIGER

@<TRIPOS>ATOM
      1 C          24.4205   27.7957    1.6636 C.3     1  UNL1        0.1089
      2 N          24.4100   29.0206    0.7979 N.am    1  UNL1       -0.2995
      3 C          24.1827   28.8931   -0.6792 C.2     1  UNL1        0.2459
      4 O          23.9658   27.5407   -1.2907 O.2     1  UNL1       -0.2701
      5 H          24.5524   29.9083    1.1992 H       1  UNL1        0.1498
      6 C          24.1722   30.1181   -1.5450 C.ar    1  UNL1        0.0532
      7 C          24.2262   31.4798   -0.9184 C.ar    1  UNL1        0.0090
      8 C          24.2157   32.7047   -1.7842 C.ar    1  UNL1        0.0534
      9 C          24.1513   32.5678   -3.2765 C.ar    1  UNL1        0.0003
     10 C          24.0974   31.2060   -3.9031 C.ar    1  UNL1       -0.0216
     11 C          24.1078   29.9812   -3.0374 C.ar    1  UNL1        0.0003
     12 C          24.0330   31.0691   -5.3955 C.3     1  UNL1        0.0310
     13 C          24.2696   34.0665   -1.1576 C.2     1  UNL1        0.2490
     14 O          25.5822   34.7810   -1.0280 O.2     1  UNL1       -0.2699
     15 N          23.0111   34.7138   -0.6607 N.am    1  UNL1       -0.2761
     16 C          23.0650   36.0757   -0.0341 C.3     1  UNL1        0.0937
     17 C          22.9132   37.3002   -0.8870 C.3     1  UNL1        0.0215
     18 C          21.9351   38.3687   -0.4977 C.3     1  UNL1        0.0018
     19 C          21.6986   33.9994   -0.7903 C.3     1  UNL1        0.0937
     20 C          21.0039   33.4789    0.4331 C.3     1  UNL1        0.0215
     21 C          21.8076   32.9489    1.5834 C.3     1  UNL1        0.0018
     22 C          23.1488   27.3140    2.2969 C.3     1  UNL1        0.1839
     23 O          22.7719   27.7808    3.6716 O.3     1  UNL1       -0.3775
     24 H          21.9497   27.4693    4.0811 H       1  UNL1        0.2106
     25 C          22.2542   26.3655    1.5553 C.3     1  UNL1        0.1339
     26 N          21.1752   25.6244    2.2879 N.4     1  UNL1        0.2597
     27 H          21.4210   24.9572    3.0192 H       1  UNL1        0.2040
     28 H          22.1547   25.4612    2.5211 H       1  UNL1        0.2040
     29 C          19.7348   25.8645    1.9450 C.3     1  UNL1        0.1298
     30 I          18.4038   23.2564   -2.3477 I       1  UNL1       -0.0425
     31 C          18.2683   23.4836   -0.8712 C.ar    1  UNL1        0.0299
     32 C          19.0693   24.5604   -0.2014 C.ar    1  UNL1        0.0072
     33 C          18.9338   24.7876    1.2751 C.ar    1  UNL1        0.0330
     34 C          17.9972   23.9378    2.0818 C.ar    1  UNL1        0.0014
     35 C          17.1962   22.8609    1.4120 C.ar    1  UNL1        0.0003
     36 C          17.3318   22.6338   -0.0645 C.ar    1  UNL1        0.0058
     37 C          25.7025   27.0525    1.8960 C.3     1  UNL1        0.0487
     38 C          26.1708   26.0347    0.8985 C.ar    1  UNL1       -0.0160
     39 C          25.6599   24.6261    0.9680 C.ar    1  UNL1        0.0256
     40 C          26.1282   23.6084   -0.0294 C.ar    1  UNL1        0.1421
     41 F          25.6173   22.1998    0.0401 F       1  UNL1       -0.2041
     42 C          27.1074   23.9992   -1.0964 C.ar    1  UNL1        0.0592
     43 C          27.6183   25.4078   -1.1659 C.ar    1  UNL1        0.1421
     44 F          28.5975   25.7987   -2.2328 F       1  UNL1       -0.2041
     45 C          27.1500   26.4256   -0.1684 C.ar    1  UNL1        0.0256
@<TRIPOS>UNITY_ATOM_ATTR
26 1
charge 1
@<TRIPOS>BOND
     1    30    31    1
     2    31    32   ar
     3    32    33   ar
     4    33    34   ar
     5    34    35   ar
     6    35    36   ar
     7    33    29    1
     8    29    26    1
     9    26    25    1
    10    25    22    1
    11    22    23    1
    12    22     1    1
    13     1     2    1
    14     2     3   am
    15     3     4    2
    16     3     6    1
    17     6     7   ar
    18     7     8   ar
    19     8     9   ar
    20     9    10   ar
    21    10    11   ar
    22    10    12    1
    23     8    13    1
    24    13    14    2
    25    13    15   am
    26    15    16    1
    27    16    17    1
    28    17    18    1
    29    15    19    1
    30    19    20    1
    31    20    21    1
    32     1    37    1
    33    37    38    1
    34    38    39   ar
    35    39    40   ar
    36    40    41    1
    37    40    42   ar
    38    42    43   ar
    39    43    44    1
    40    43    45   ar
    41    36    31   ar
    42    11     6   ar
    43    45    38   ar
    44    26    27    1
    45    26    28    1
    46    23    24    1
    47     2     5    1
@<TRIPOS>MOLECULE
*****
 45 47 0 0 0
SMALL
GASTEIGER

@<TRIPOS>ATOM
      1 C          22.9634   27.7521    1.8351 C.3     1  UNL1        0.1089
      2 N          23.7027   26.8513    0.8907 N.am    1  UNL1       -0.2995
      3 C          25.0375   26.2893    1.2807 C.2     1  UNL1        0.2459
      4 O          25.6331   26.6280    2.6150 O.2     1  UNL1       -0.2701
      5 H          23.3118   26.6290    0.0149 H       1  UNL1        0.1498
      6 C          25.7769   25.3884    0.3362 C.ar    1  UNL1        0.0532
      7 C          25.3715   23.9508    0.1988 C.ar    1  UNL1        0.0090
      8 C          26.1108   23.0501   -0.7455 C.ar    1  UNL1        0.0534
      9 C          27.2556   23.5869   -1.5525 C.ar    1  UNL1        0.0003
     10 C          27.6611   25.0244   -1.4151 C.ar    1  UNL1       -0.0216
     11 C          26.9217   25.9252   -0.4707 C.ar    1  UNL1        0.0003
     12 C          28.8059   25.5612   -2.2221 C.3     1  UNL1        0.0310
     13 C          25.7054   21.6124   -0.8830 C.2     1  UNL1        0.2490
     14 O          25.1402   20.8766    0.2956 O.2     1  UNL1       -0.2699
     15 N          25.8651   20.9106   -2.1990 N.am    1  UNL1       -0.2761
     16 C          25.4597   19.4729   -2.3364 C.3     1  UNL1        0.0937
     17 C          24.0246   19.1196   -2.5925 C.3     1  UNL1        0.0215
     18 C          23.6362   18.4410   -3.8725 C.3     1  UNL1        0.0018
     19 C          26.4303   21.6464   -3.3776 C.3     1  UNL1        0.0937
     20 C          25.6819   21.6681   -4.6775 C.3     1  UNL1        0.0215
     21 C          26.1484   20.8231   -5.8256 C.3     1  UNL1        0.0018
     22 C          21.8581   27.2012    2.6866 C.3     1  UNL1        0.1839
     23 O          21.8669   27.4322    4.1687 O.3     1  UNL1       -0.3775
     24 H          21.1521   27.0760    4.7193 H       1  UNL1        0.2106
     25 C          20.7441   26.4194    2.0560 C.3     1  UNL1        0.1339
     26 N          20.0918   25.3001    2.8120 N.4     1  UNL1        0.2597
     27 H          20.6198   24.7846    3.5162 H       1  UNL1        0.2040
     28 H          21.0634   25.5457    3.0021 H       1  UNL1        0.2040
     29 C          18.6630   24.9389    2.5325 C.3     1  UNL1        0.1298
     30 I          18.4613   23.4837   -2.4517 I       1  UNL1       -0.0425
     31 C          18.2391   23.1798   -0.9997 C.ar    1  UNL1        0.0299
     32 C          18.5622   24.2112    0.0404 C.ar    1  UNL1        0.0072
     33 C          18.3399   23.9074    1.4924 C.ar    1  UNL1        0.0330
     34 C          17.7946   22.5722    1.9043 C.ar    1  UNL1        0.0014
     35 C          17.4715   21.5408    0.8642 C.ar    1  UNL1        0.0003
     36 C          17.6937   21.8446   -0.5878 C.ar    1  UNL1        0.0058
     37 C          23.3293   29.2038    1.9281 C.3     1  UNL1        0.0487
     38 C          22.6473   30.2072    1.0458 C.ar    1  UNL1       -0.0160
     39 C          21.3125   30.7670    1.4392 C.ar    1  UNL1        0.0256
     40 C          20.6305   31.7703    0.5570 C.ar    1  UNL1        0.1421
     41 F          19.2957   32.3302    0.9503 F       1  UNL1       -0.2041
     42 C          21.2834   32.2138   -0.7186 C.ar    1  UNL1        0.0592
     43 C          22.6183   31.6540   -1.1120 C.ar    1  UNL1        0.1421
     44 F          23.2712   32.0974   -2.3875 F       1  UNL1       -0.2041
     45 C          23.3002   30.6506   -0.2297 C.ar    1  UNL1        0.0256
@<TRIPOS>UNITY_ATOM_ATTR
26 1
charge 1
@<TRIPOS>BOND
     1    30    31    1
     2    31    32   ar
     3    32    33   ar
     4    33    34   ar
     5    34    35   ar
     6    35    36   ar
     7    33    29    1
     8    29    26    1
     9    26    25    1
    10    25    22    1
    11    22    23    1
    12    22     1    1
    13     1     2    1
    14     2     3   am
    15     3     4    2
    16     3     6    1
    17     6     7   ar
    18     7     8   ar
    19     8     9   ar
    20     9    10   ar
    21    10    11   ar
    22    10    12    1
    23     8    13    1
    24    13    14    2
    25    13    15   am
    26    15    16    1
    27    16    17    1
    28    17    18    1
    29    15    19    1
    30    19    20    1
    31    20    21    1
    32     1    37    1
    33    37    38    1
    34    38    39   ar
    35    39    40   ar
    36    40    41    1
    37    40    42   ar
    38    42    43   ar
    39    43    44    1
    40    43    45   ar
    41    36    31   ar
    42    11     6   ar
    43    45    38   ar
    44    26    27    1
    45    26    28    1
    46    23    24    1
    47     2     5    1
@<TRIPOS>MOLECULE
*****
 45 47 0 0 0
SMALL
GASTEIGER

@<TRIPOS>ATOM
      1 C          23.5928   25.6926    1.5435 C.3     1  UNL1        0.1089
      2 N          23.3094   26.8867    0.6811 N.am    1  UNL1       -0.2995
      3 C          23.5731   28.2681    1.2027 C.2     1  UNL1        0.2459
      4 O          24.1202   28.4553    2.5868 O.2     1  UNL1       -0.2701
      5 H          22.9504   26.7637   -0.2273 H       1  UNL1        0.1498
      6 C          23.2898   29.4622    0.3403 C.ar    1  UNL1        0.0532
      7 C          24.0523   29.6639   -0.9355 C.ar    1  UNL1        0.0090
      8 C          23.7689   30.8581   -1.7978 C.ar    1  UNL1        0.0534
      9 C          22.7230   31.8505   -1.3843 C.ar    1  UNL1        0.0003
     10 C          21.9604   31.6489   -0.1085 C.ar    1  UNL1       -0.0216
     11 C          22.2438   30.4547    0.7538 C.ar    1  UNL1        0.0003
     12 C          20.9145   32.6413    0.3050 C.3     1  UNL1        0.0310
     13 C          24.5315   31.0598   -3.0738 C.2     1  UNL1        0.2490
     14 O          24.0963   30.3587   -4.3264 O.2     1  UNL1       -0.2699
     15 N          25.7292   31.9625   -3.0970 N.am    1  UNL1       -0.2761
     16 C          26.4917   32.1642   -4.3729 C.3     1  UNL1        0.0937
     17 C          27.5705   31.1977   -4.7627 C.3     1  UNL1        0.0215
     18 C          28.8636   31.7053   -5.3284 C.3     1  UNL1        0.0018
     19 C          26.1644   32.6636   -1.8443 C.3     1  UNL1        0.0937
     20 C          25.7795   34.0949   -1.6136 C.3     1  UNL1        0.0215
     21 C          24.7772   34.7563   -2.5125 C.3     1  UNL1        0.0018
     22 C          22.4675   24.9866    2.2402 C.3     1  UNL1        0.1839
     23 O          22.2156   23.5320    1.9743 O.3     1  UNL1       -0.3775
     24 H          21.4880   23.0755    2.4249 H       1  UNL1        0.2106
     25 C          21.5942   25.7352    3.2029 C.3     1  UNL1        0.1339
     26 N          20.1353   25.4025    3.3067 N.4     1  UNL1        0.2597
     27 H          19.7719   24.9597    4.1507 H       1  UNL1        0.2040
     28 H          20.7640   25.1859    4.0801 H       1  UNL1        0.2040
     29 C          19.2106   25.7210    2.1694 C.3     1  UNL1        0.1298
     30 I          18.5104   23.4807   -2.4664 I       1  UNL1       -0.0425
     31 C          18.2887   23.4933   -0.9830 C.ar    1  UNL1        0.0299
     32 C          18.8605   24.6008   -0.1485 C.ar    1  UNL1        0.0072
     33 C          18.6387   24.6134    1.3350 C.ar    1  UNL1        0.0330
     34 C          17.8452   23.5184    1.9840 C.ar    1  UNL1        0.0014
     35 C          17.2735   22.4108    1.1496 C.ar    1  UNL1        0.0003
     36 C          17.4952   22.3983   -0.3339 C.ar    1  UNL1        0.0058
     37 C          25.0014   25.2044    1.7092 C.3     1  UNL1        0.0487
     38 C          25.7705   24.7147    0.5180 C.ar    1  UNL1       -0.0160
     39 C          25.4970   23.3503   -0.0420 C.ar    1  UNL1        0.0256
     40 C          26.2660   22.8605   -1.2332 C.ar    1  UNL1        0.1421
     41 F          25.9926   21.4961   -1.7932 F       1  UNL1       -0.2041
     42 C          27.3085   23.7352   -1.8643 C.ar    1  UNL1        0.0592
     43 C          27.5819   25.0996   -1.3043 C.ar    1  UNL1        0.1421
     44 F          28.6243   25.9743   -1.9354 F       1  UNL1       -0.2041
     45 C          26.8129   25.5893   -0.1131 C.ar    1  UNL1        0.0256
@<TRIPOS>UNITY_ATOM_ATTR
26 1
charge 1
@<TRIPOS>BOND
     1    30    31    1
     2    31    32   ar
     3    32    33   ar
     4    33    34   ar
     5    34    35   ar
     6    35    36   ar
     7    33    29    1
     8    29    26    1
     9    26    25    1
    10    25    22    1
    11    22    23    1
    12    22     1    1
    13     1     2    1
    14     2     3   am
    15     3     4    2
    16     3     6    1
    17     6     7   ar
    18     7     8   ar
    19     8     9   ar
    20     9    10   ar
    21    10    11   ar
    22    10    12    1
    23     8    13    1
    24    13    14    2
    25    13    15   am
    26    15    16    1
    27    16    17    1
    28    17    18    1
    29    15    19    1
    30    19    20    1
    31    20    21    1
    32     1    37    1
    33    37    38    1
    34    38    39   ar
    35    39    40   ar
    36    40    41    1
    37    40    42   ar
    38    42    43   ar
    39    43    44    1
    40    43    45   ar
    41    36    31   ar
    42    11     6   ar
    43    45    38   ar
    44    26    27    1
    45    26    28    1
    46    23    24    1
    47     2     5    1
@<TRIPOS>MOLECULE
*****
 45 47 0 0 0
SMALL
GASTEIGER

@<TRIPOS>ATOM
      1 C          25.1475   24.8954    1.6947 C.3     1  UNL1        0.1089
      2 N          25.0778   23.5284    1.0814 N.am    1  UNL1       -0.2995
      3 C          25.4682   23.3292   -0.3531 C.2     1  UNL1        0.2459
      4 O          25.9283   24.4971   -1.1743 O.2     1  UNL1       -0.2701
      5 H          24.7758   22.7618    1.6203 H       1  UNL1        0.1498
      6 C          25.3985   21.9621   -0.9666 C.ar    1  UNL1        0.0532
      7 C          24.6204   20.8742   -0.2876 C.ar    1  UNL1        0.0090
      8 C          24.5508   19.5072   -0.9011 C.ar    1  UNL1        0.0534
      9 C          25.2592   19.2280   -2.1934 C.ar    1  UNL1        0.0003
     10 C          26.0372   20.3159   -2.8724 C.ar    1  UNL1       -0.0216
     11 C          26.1069   21.6830   -2.2590 C.ar    1  UNL1        0.0003
     12 C          26.7456   20.0368   -4.1648 C.3     1  UNL1        0.0310
     13 C          23.7727   18.4192   -0.2221 C.2     1  UNL1        0.2490
     14 O          24.4931   17.2731    0.4240 O.2     1  UNL1       -0.2699
     15 N          22.2742   18.4773   -0.1893 N.am    1  UNL1       -0.2761
     16 C          21.4961   17.3893    0.4897 C.3     1  UNL1        0.0937
     17 C          20.9500   16.2453   -0.3123 C.3     1  UNL1        0.0215
     18 C          21.5660   15.8946   -1.6341 C.3     1  UNL1        0.0018
     19 C          21.5537   19.6233   -0.8354 C.3     1  UNL1        0.0937
     20 C          20.5871   20.4472   -0.0373 C.3     1  UNL1        0.0215
     21 C          21.0908   21.3544    1.0459 C.3     1  UNL1        0.0018
     22 C          23.8853   25.6500    1.9906 C.3     1  UNL1        0.1839
     23 O          23.9541   27.0072    2.6254 O.3     1  UNL1       -0.3775
     24 H          23.1379   27.4952    2.8168 H       1  UNL1        0.2106
     25 C          22.5542   25.0472    1.6517 C.3     1  UNL1        0.1339
     26 N          21.4385   25.0810    2.6538 N.4     1  UNL1        0.2597
     27 H          21.6158   24.8189    3.6235 H       1  UNL1        0.2040
     28 H          22.3745   24.7959    2.9420 H       1  UNL1        0.2040
     29 C          20.0621   25.5003    2.2299 C.3     1  UNL1        0.1298
     30 I          18.3908   23.4126   -2.2252 I       1  UNL1       -0.0425
     31 C          18.3402   23.4916   -0.7282 C.ar    1  UNL1        0.0299
     32 C          19.2264   24.4564    0.0023 C.ar    1  UNL1        0.0072
     33 C          19.1758   24.5354    1.4994 C.ar    1  UNL1        0.0330
     34 C          18.2390   23.6497    2.2659 C.ar    1  UNL1        0.0014
     35 C          17.3528   22.6848    1.5354 C.ar    1  UNL1        0.0003
     36 C          17.4034   22.6058    0.0384 C.ar    1  UNL1        0.0058
     37 C          26.4794   25.5080    2.0122 C.3     1  UNL1        0.0487
     38 C          26.8073   26.8866    1.5200 C.ar    1  UNL1       -0.0160
     39 C          26.8076   27.1772    0.0484 C.ar    1  UNL1        0.0256
     40 C          27.1355   28.5557   -0.4437 C.ar    1  UNL1        0.1421
     41 F          27.1358   28.8463   -1.9153 F       1  UNL1       -0.2041
     42 C          27.4631   29.6436    0.5357 C.ar    1  UNL1        0.0592
     43 C          27.4628   29.3529    2.0073 C.ar    1  UNL1        0.1421
     44 F          27.7904   30.4407    2.9867 F       1  UNL1       -0.2041
     45 C          27.1349   27.9744    2.4994 C.ar    1  UNL1        0.0256
@<TRIPOS>UNITY_ATOM_ATTR
26 1
charge 1
@<TRIPOS>BOND
     1    30    31    1
     2    31    32   ar
     3    32    33   ar
     4    33    34   ar
     5    34    35   ar
     6    35    36   ar
     7    33    29    1
     8    29    26    1
     9    26    25    1
    10    25    22    1
    11    22    23    1
    12    22     1    1
    13     1     2    1
    14     2     3   am
    15     3     4    2
    16     3     6    1
    17     6     7   ar
    18     7     8   ar
    19     8     9   ar
    20     9    10   ar
    21    10    11   ar
    22    10    12    1
    23     8    13    1
    24    13    14    2
    25    13    15   am
    26    15    16    1
    27    16    17    1
    28    17    18    1
    29    15    19    1
    30    19    20    1
    31    20    21    1
    32     1    37    1
    33    37    38    1
    34    38    39   ar
    35    39    40   ar
    36    40    41    1
    37    40    42   ar
    38    42    43   ar
    39    43    44    1
    40    43    45   ar
    41    36    31   ar
    42    11     6   ar
    43    45    38   ar
    44    26    27    1
    45    26    28    1
    46    23    24    1
    47     2     5    1
@<TRIPOS>MOLECULE
*****
 45 47 0 0 0
SMALL
GASTEIGER

@<TRIPOS>ATOM
      1 C          22.2588   27.3411    1.6014 C.3     1  UNL1        0.1089
      2 N          21.7772   28.7006    1.1895 N.am    1  UNL1       -0.2995
      3 C          22.6179   29.9108    1.4699 C.2     1  UNL1        0.2459
      4 O          23.9402   29.7615    2.1622 O.2     1  UNL1       -0.2701
      5 H          20.9094   28.7987    0.7351 H       1  UNL1        0.1498
      6 C          22.1364   31.2704    1.0580 C.ar    1  UNL1        0.0532
      7 C          23.0972   32.2593    0.4675 C.ar    1  UNL1        0.0090
      8 C          22.6156   33.6189    0.0556 C.ar    1  UNL1        0.0534
      9 C          21.1732   33.9895    0.2342 C.ar    1  UNL1        0.0003
     10 C          20.2123   33.0006    0.8247 C.ar    1  UNL1       -0.0216
     11 C          20.6939   31.6411    1.2366 C.ar    1  UNL1        0.0003
     12 C          18.7698   33.3712    1.0033 C.3     1  UNL1        0.0310
     13 C          23.5766   34.6078   -0.5350 C.2     1  UNL1        0.2490
     14 O          24.4477   35.4352    0.3631 O.2     1  UNL1       -0.2699
     15 N          23.6663   34.7694   -2.0235 N.am    1  UNL1       -0.2761
     16 C          24.6272   35.7584   -2.6141 C.3     1  UNL1        0.0937
     17 C          26.0604   35.3734   -2.8318 C.3     1  UNL1        0.0215
     18 C          27.1328   35.9472   -1.9538 C.3     1  UNL1        0.0018
     19 C          22.7951   33.9420   -2.9216 C.3     1  UNL1        0.0937
     20 C          23.3829   32.7928   -3.6857 C.3     1  UNL1        0.0215
     21 C          24.3690   31.8773   -3.0227 C.3     1  UNL1        0.0018
     22 C          21.8187   26.7541    2.9098 C.3     1  UNL1        0.1839
     23 O          21.9834   27.5392    4.1773 O.3     1  UNL1       -0.3775
     24 H          21.6988   27.1596    5.0233 H       1  UNL1        0.2106
     25 C          21.2139   25.3821    2.9506 C.3     1  UNL1        0.1339
     26 N          19.7582   25.2134    3.2710 N.4     1  UNL1        0.2597
     27 H          19.4702   24.9573    4.2154 H       1  UNL1        0.2040
     28 H          20.4601   25.0720    3.9975 H       1  UNL1        0.2040
     29 C          18.7261   25.4212    2.2025 C.3     1  UNL1        0.1298
     30 I          18.4946   23.4222   -2.5881 I       1  UNL1       -0.0425
     31 C          18.2472   23.2951   -1.1141 C.ar    1  UNL1        0.0299
     32 C          18.6103   24.4217   -0.1928 C.ar    1  UNL1        0.0072
     33 C          18.3630   24.2946    1.2812 C.ar    1  UNL1        0.0330
     34 C          17.7526   23.0408    1.8339 C.ar    1  UNL1        0.0014
     35 C          17.3895   21.9142    0.9125 C.ar    1  UNL1        0.0003
     36 C          17.6368   22.0414   -0.5615 C.ar    1  UNL1        0.0058
     37 C          23.1806   26.5685    0.7050 C.3     1  UNL1        0.0487
     38 C          24.5091   27.1471    0.3174 C.ar    1  UNL1       -0.0160
     39 C          24.6685   27.8412   -1.0028 C.ar    1  UNL1        0.0256
     40 C          25.9970   28.4198   -1.3904 C.ar    1  UNL1        0.1421
     41 F          26.1563   29.1138   -2.7106 F       1  UNL1       -0.2041
     42 C          27.1662   28.3043   -0.4578 C.ar    1  UNL1        0.0592
     43 C          27.0069   27.6103    0.8624 C.ar    1  UNL1        0.1421
     44 F          28.1760   27.4948    1.7949 F       1  UNL1       -0.2041
     45 C          25.6783   27.0317    1.2500 C.ar    1  UNL1        0.0256
@<TRIPOS>UNITY_ATOM_ATTR
26 1
charge 1
@<TRIPOS>BOND
     1    30    31    1
     2    31    32   ar
     3    32    33   ar
     4    33    34   ar
     5    34    35   ar
     6    35    36   ar
     7    33    29    1
     8    29    26    1
     9    26    25    1
    10    25    22    1
    11    22    23    1
    12    22     1    1
    13     1     2    1
    14     2     3   am
    15     3     4    2
    16     3     6    1
    17     6     7   ar
    18     7     8   ar
    19     8     9   ar
    20     9    10   ar
    21    10    11   ar
    22    10    12    1
    23     8    13    1
    24    13    14    2
    25    13    15   am
    26    15    16    1
    27    16    17    1
    28    17    18    1
    29    15    19    1
    30    19    20    1
    31    20    21    1
    32     1    37    1
    33    37    38    1
    34    38    39   ar
    35    39    40   ar
    36    40    41    1
    37    40    42   ar
    38    42    43   ar
    39    43    44    1
    40    43    45   ar
    41    36    31   ar
    42    11     6   ar
    43    45    38   ar
    44    26    27    1
    45    26    28    1
    46    23    24    1
    47     2     5    1
@<TRIPOS>MOLECULE
*****
 45 47 0 0 0
SMALL
GASTEIGER

@<TRIPOS>ATOM
      1 C          22.2974   19.9355    0.5318 C.3     1  UNL1        0.1089
      2 N          23.3746   20.9368    0.2372 N.am    1  UNL1       -0.2995
      3 C          24.3039   20.7200   -0.9201 C.2     1  UNL1        0.2459
      4 O          24.1560   19.5018   -1.7827 O.2     1  UNL1       -0.2701
      5 H          23.4717   21.7364    0.8034 H       1  UNL1        0.1498
      6 C          25.3812   21.7213   -1.2147 C.ar    1  UNL1        0.0532
      7 C          25.6960   22.7990   -0.2200 C.ar    1  UNL1        0.0090
      8 C          26.7732   23.8002   -0.5147 C.ar    1  UNL1        0.0534
      9 C          27.5357   23.7239   -1.8041 C.ar    1  UNL1        0.0003
     10 C          27.2210   22.6463   -2.7989 C.ar    1  UNL1       -0.0216
     11 C          26.1437   21.6450   -2.5042 C.ar    1  UNL1        0.0003
     12 C          27.9835   22.5699   -4.0884 C.3     1  UNL1        0.0310
     13 C          27.0880   24.8780    0.4801 C.2     1  UNL1        0.2490
     14 O          28.4745   25.4452    0.5578 O.2     1  UNL1       -0.2699
     15 N          26.0164   25.3884    1.3972 N.am    1  UNL1       -0.2761
     16 C          26.3312   26.4661    2.3920 C.3     1  UNL1        0.0937
     17 C          26.2659   27.9075    1.9820 C.3     1  UNL1        0.0215
     18 C          25.3589   28.8541    2.7108 C.3     1  UNL1        0.0018
     19 C          24.6299   24.8212    1.3195 C.3     1  UNL1        0.0937
     20 C          23.4533   25.6584    1.7254 C.3     1  UNL1        0.0215
     21 C          22.3860   25.0761    2.6040 C.3     1  UNL1        0.0018
     22 C          22.5598   18.8116    1.4900 C.3     1  UNL1        0.1839
     23 O          22.3485   19.0153    2.9610 O.3     1  UNL1       -0.3775
     24 H          22.5182   18.2885    3.5806 H       1  UNL1        0.2106
     25 C          23.0335   17.4840    0.9771 C.3     1  UNL1        0.1339
     26 N          23.2943   16.3596    1.9350 N.4     1  UNL1        0.2597
     27 H          24.0534   16.4324    2.6124 H       1  UNL1        0.2040
     28 H          23.8761   17.1970    1.9610 H       1  UNL1        0.2040
     29 C          22.4387   15.1281    1.8969 C.3     1  UNL1        0.1298
     30 I          21.5464   10.2805    3.5416 I       1  UNL1       -0.0425
     31 C          22.4905   11.4260    3.3260 C.ar    1  UNL1        0.0299
     32 C          21.9926   12.7043    2.7192 C.ar    1  UNL1        0.0072
     33 C          22.9367   13.8498    2.5036 C.ar    1  UNL1        0.0330
     34 C          24.3786   13.7171    2.8948 C.ar    1  UNL1        0.0014
     35 C          24.8765   12.4388    3.5015 C.ar    1  UNL1        0.0003
     36 C          23.9324   11.2933    3.7171 C.ar    1  UNL1        0.0058
     37 C          20.9577   20.0580   -0.1317 C.3     1  UNL1        0.0487
     38 C          19.8699   20.8615    0.5174 C.ar    1  UNL1       -0.0160
     39 C          19.5292   22.2246   -0.0079 C.ar    1  UNL1        0.0256
     40 C          18.4415   23.0281    0.6412 C.ar    1  UNL1        0.1421
     41 F          18.1007   24.3912    0.1159 F       1  UNL1       -0.2041
     42 C          17.6945   22.4686    1.8155 C.ar    1  UNL1        0.0592
     43 C          18.0353   21.1055    2.3408 C.ar    1  UNL1        0.1421
     44 F          17.2884   20.5460    3.5150 F       1  UNL1       -0.2041
     45 C          19.1230   20.3020    1.6917 C.ar    1  UNL1        0.0256
@<TRIPOS>UNITY_ATOM_ATTR
26 1
charge 1
@<TRIPOS>BOND
     1    30    31    1
     2    31    32   ar
     3    32    33   ar
     4    33    34   ar
     5    34    35   ar
     6    35    36   ar
     7    33    29    1
     8    29    26    1
     9    26    25    1
    10    25    22    1
    11    22    23    1
    12    22     1    1
    13     1     2    1
    14     2     3   am
    15     3     4    2
    16     3     6    1
    17     6     7   ar
    18     7     8   ar
    19     8     9   ar
    20     9    10   ar
    21    10    11   ar
    22    10    12    1
    23     8    13    1
    24    13    14    2
    25    13    15   am
    26    15    16    1
    27    16    17    1
    28    17    18    1
    29    15    19    1
    30    19    20    1
    31    20    21    1
    32     1    37    1
    33    37    38    1
    34    38    39   ar
    35    39    40   ar
    36    40    41    1
    37    40    42   ar
    38    42    43   ar
    39    43    44    1
    40    43    45   ar
    41    36    31   ar
    42    11     6   ar
    43    45    38   ar
    44    26    27    1
    45    26    28    1
    46    23    24    1
    47     2     5    1
@<TRIPOS>MOLECULE
*****
 45 47 0 0 0
SMALL
GASTEIGER

@<TRIPOS>ATOM
      1 C          25.3203   27.1621    1.3059 C.3     1  UNL1        0.1089
      2 N          25.9194   28.2993    0.5328 N.am    1  UNL1       -0.2995
      3 C          25.6939   28.4014   -0.9466 C.2     1  UNL1        0.2459
      4 O          24.8693   27.3664   -1.6529 O.2     1  UNL1       -0.2701
      5 H          26.4606   28.9786    0.9963 H       1  UNL1        0.1498
      6 C          26.2931   29.5387   -1.7199 C.ar    1  UNL1        0.0532
      7 C          26.1645   30.9431   -1.2090 C.ar    1  UNL1        0.0090
      8 C          26.7636   32.0802   -1.9822 C.ar    1  UNL1        0.0534
      9 C          27.4913   31.8129   -3.2664 C.ar    1  UNL1        0.0003
     10 C          27.6198   30.4085   -3.7773 C.ar    1  UNL1       -0.0216
     11 C          27.0207   29.2714   -3.0041 C.ar    1  UNL1        0.0003
     12 C          28.3475   30.1413   -5.0615 C.3     1  UNL1        0.0310
     13 C          26.6351   33.4847   -1.4713 C.2     1  UNL1        0.2490
     14 O          27.6735   34.0435   -0.5442 O.2     1  UNL1       -0.2699
     15 N          25.4682   34.3303   -1.8874 N.am    1  UNL1       -0.2761
     16 C          25.3396   35.7348   -1.3764 C.3     1  UNL1        0.0937
     17 C          24.5722   36.0073   -0.1168 C.3     1  UNL1        0.0215
     18 C          23.4525   37.0054   -0.1219 C.3     1  UNL1        0.0018
     19 C          24.4297   33.7715   -2.8144 C.3     1  UNL1        0.0937
     20 C          23.2700   32.9969   -2.2619 C.3     1  UNL1        0.0215
     21 C          21.8686   33.4817   -2.4875 C.3     1  UNL1        0.0018
     22 C          23.9218   27.2709    1.8373 C.3     1  UNL1        0.1839
     23 O          23.6377   28.1354    3.0297 O.3     1  UNL1       -0.3775
     24 H          22.7333   28.2057    3.3734 H       1  UNL1        0.2106
     25 C          22.8074   26.5151    1.1763 C.3     1  UNL1        0.1339
     26 N          21.8034   25.7768    2.0110 N.4     1  UNL1        0.2597
     27 H          22.1136   25.0571    2.6639 H       1  UNL1        0.2040
     28 H          22.7963   25.5592    2.0963 H       1  UNL1        0.2040
     29 C          20.3433   26.0967    1.8856 C.3     1  UNL1        0.1298
     30 I          18.3560   23.3255   -2.0351 I       1  UNL1       -0.0425
     31 C          18.3939   23.6690   -0.5754 C.ar    1  UNL1        0.0299
     32 C          19.3496   24.7110   -0.0747 C.ar    1  UNL1        0.0072
     33 C          19.3875   25.0546    1.3849 C.ar    1  UNL1        0.0330
     34 C          18.4697   24.3561    2.3439 C.ar    1  UNL1        0.0014
     35 C          17.5140   23.3140    1.8432 C.ar    1  UNL1        0.0003
     36 C          17.4761   22.9705    0.3835 C.ar    1  UNL1        0.0058
     37 C          26.1197   25.9160    1.5477 C.3     1  UNL1        0.0487
     38 C          26.2259   24.8731    0.4747 C.ar    1  UNL1       -0.0160
     39 C          25.3841   23.6338    0.5475 C.ar    1  UNL1        0.0256
     40 C          25.4904   22.5909   -0.5253 C.ar    1  UNL1        0.1421
     41 F          24.6486   21.3515   -0.4525 F       1  UNL1       -0.2041
     42 C          26.4384   22.7874   -1.6711 C.ar    1  UNL1        0.0592
     43 C          27.2802   24.0268   -1.7439 C.ar    1  UNL1        0.1421
     44 F          28.2282   24.2233   -2.8895 F       1  UNL1       -0.2041
     45 C          27.1740   25.0697   -0.6709 C.ar    1  UNL1        0.0256
@<TRIPOS>UNITY_ATOM_ATTR
26 1
charge 1
@<TRIPOS>BOND
     1    30    31    1
     2    31    32   ar
     3    32    33   ar
     4    33    34   ar
     5    34    35   ar
     6    35    36   ar
     7    33    29    1
     8    29    26    1
     9    26    25    1
    10    25    22    1
    11    22    23    1
    12    22     1    1
    13     1     2    1
    14     2     3   am
    15     3     4    2
    16     3     6    1
    17     6     7   ar
    18     7     8   ar
    19     8     9   ar
    20     9    10   ar
    21    10    11   ar
    22    10    12    1
    23     8    13    1
    24    13    14    2
    25    13    15   am
    26    15    16    1
    27    16    17    1
    28    17    18    1
    29    15    19    1
    30    19    20    1
    31    20    21    1
    32     1    37    1
    33    37    38    1
    34    38    39   ar
    35    39    40   ar
    36    40    41    1
    37    40    42   ar
    38    42    43   ar
    39    43    44    1
    40    43    45   ar
    41    36    31   ar
    42    11     6   ar
    43    45    38   ar
    44    26    27    1
    45    26    28    1
    46    23    24    1
    47     2     5    1
@<TRIPOS>MOLECULE
*****
 45 47 0 0 0
SMALL
GASTEIGER

@<TRIPOS>ATOM
      1 C          21.5789   19.5591    0.2645 C.3     1  UNL1        0.1089
      2 N          22.5445   20.4068   -0.5094 N.am    1  UNL1       -0.2995
      3 C          23.9738   20.5102   -0.0662 C.2     1  UNL1        0.2459
      4 O          24.4374   19.7660    1.1508 O.2     1  UNL1       -0.2701
      5 H          22.2402   20.8952   -1.3082 H       1  UNL1        0.1498
      6 C          24.9395   21.3579   -0.8401 C.ar    1  UNL1        0.0532
      7 C          25.5667   22.5586   -0.1960 C.ar    1  UNL1        0.0090
      8 C          26.5324   23.4062   -0.9700 C.ar    1  UNL1        0.0534
      9 C          26.8709   23.0531   -2.3880 C.ar    1  UNL1        0.0003
     10 C          26.2437   21.8524   -3.0321 C.ar    1  UNL1       -0.0216
     11 C          25.2780   21.0048   -2.2582 C.ar    1  UNL1        0.0003
     12 C          26.5821   21.4993   -4.4501 C.3     1  UNL1        0.0310
     13 C          27.1597   24.6070   -0.3259 C.2     1  UNL1        0.2490
     14 O          28.6413   24.6460   -0.0949 O.2     1  UNL1       -0.2699
     15 N          26.3053   25.7686    0.0873 N.am    1  UNL1       -0.2761
     16 C          26.9326   26.9693    0.7314 C.3     1  UNL1        0.0937
     17 C          26.9355   28.2881    0.0167 C.3     1  UNL1        0.0215
     18 C          27.0810   28.3321   -1.4756 C.3     1  UNL1        0.0018
     19 C          24.8237   25.7295   -0.1437 C.3     1  UNL1        0.0937
     20 C          23.8802   25.8776    1.0131 C.3     1  UNL1        0.0215
     21 C          22.8419   26.9601    1.0001 C.3     1  UNL1        0.0018
     22 C          21.7484   18.0691    0.2978 C.3     1  UNL1        0.1839
     23 O          21.5164   17.2599   -0.9438 O.3     1  UNL1       -0.3775
     24 H          21.6260   16.2964   -0.9223 H       1  UNL1        0.2106
     25 C          22.1500   17.3882    1.5726 C.3     1  UNL1        0.1339
     26 N          21.6705   15.9969    1.8630 N.4     1  UNL1        0.2597
     27 H          21.0009   15.8349    2.6152 H       1  UNL1        0.2040
     28 H          21.3270   16.7810    2.4177 H       1  UNL1        0.2040
     29 C          22.1758   14.8439    1.0474 C.3     1  UNL1        0.1298
     30 I          23.1665    9.7459    0.8786 I       1  UNL1       -0.0425
     31 C          23.1219   11.0359    1.6426 C.ar    1  UNL1        0.0299
     32 C          22.6712   12.2949    0.9631 C.ar    1  UNL1        0.0072
     33 C          22.6266   13.5849    1.7271 C.ar    1  UNL1        0.0330
     34 C          23.0328   13.6161    3.1706 C.ar    1  UNL1        0.0014
     35 C          23.4835   12.3572    3.8502 C.ar    1  UNL1        0.0003
     36 C          23.5281   11.0671    3.0862 C.ar    1  UNL1        0.0058
     37 C          20.4436   20.2015    1.0052 C.3     1  UNL1        0.0487
     38 C          19.9069   21.5269    0.5520 C.ar    1  UNL1       -0.0160
     39 C          19.0973   21.6172   -0.7075 C.ar    1  UNL1        0.0256
     40 C          18.5606   22.9425   -1.1606 C.ar    1  UNL1        0.1421
     41 F          17.7509   23.0328   -2.4202 F       1  UNL1       -0.2041
     42 C          18.8335   24.1776   -0.3543 C.ar    1  UNL1        0.0592
     43 C          19.6431   24.0873    0.9052 C.ar    1  UNL1        0.1421
     44 F          19.9160   25.3223    1.7115 F       1  UNL1       -0.2041
     45 C          20.1798   22.7619    1.3584 C.ar    1  UNL1        0.0256
@<TRIPOS>UNITY_ATOM_ATTR
26 1
charge 1
@<TRIPOS>BOND
     1    30    31    1
     2    31    32   ar
     3    32    33   ar
     4    33    34   ar
     5    34    35   ar
     6    35    36   ar
     7    33    29    1
     8    29    26    1
     9    26    25    1
    10    25    22    1
    11    22    23    1
    12    22     1    1
    13     1     2    1
    14     2     3   am
    15     3     4    2
    16     3     6    1
    17     6     7   ar
    18     7     8   ar
    19     8     9   ar
    20     9    10   ar
    21    10    11   ar
    22    10    12    1
    23     8    13    1
    24    13    14    2
    25    13    15   am
    26    15    16    1
    27    16    17    1
    28    17    18    1
    29    15    19    1
    30    19    20    1
    31    20    21    1
    32     1    37    1
    33    37    38    1
    34    38    39   ar
    35    39    40   ar
    36    40    41    1
    37    40    42   ar
    38    42    43   ar
    39    43    44    1
    40    43    45   ar
    41    36    31   ar
    42    11     6   ar
    43    45    38   ar
    44    26    27    1
    45    26    28    1
    46    23    24    1
    47     2     5    1
@<TRIPOS>MOLECULE
*****
 48 51 0 0 0
SMALL
GASTEIGER

@<TRIPOS>ATOM
      1 C          25.3933   24.8704    0.3796 C.3     1  UNL1        0.1092
      2 N          24.9224   23.7088   -0.4446 N.am    1  UNL1       -0.2995
      3 C          25.2862   22.3095   -0.0454 C.2     1  UNL1        0.2459
      4 O          26.1211   22.0716    1.1780 O.2     1  UNL1       -0.2701
      5 H          24.3745   23.8650   -1.2475 H       1  UNL1        0.1498
      6 C          24.8153   21.1480   -0.8695 C.ar    1  UNL1        0.0532
      7 C          23.8062   20.1906   -0.3084 C.ar    1  UNL1        0.0090
      8 C          23.3352   19.0290   -1.1325 C.ar    1  UNL1        0.0534
      9 C          23.8734   18.8250   -2.5177 C.ar    1  UNL1        0.0003
     10 C          24.8827   19.7825   -3.0787 C.ar    1  UNL1       -0.0216
     11 C          25.3536   20.9440   -2.2546 C.ar    1  UNL1        0.0003
     12 C          25.4209   19.5785   -4.4639 C.3     1  UNL1        0.0310
     13 C          22.3260   18.0716   -0.5714 C.2     1  UNL1        0.2490
     14 O          22.7802   16.7950    0.0723 O.2     1  UNL1       -0.2699
     15 N          20.8627   18.3905   -0.6541 N.am    1  UNL1       -0.2761
     16 C          19.8535   17.4330   -0.0930 C.3     1  UNL1        0.0937
     17 C          19.5431   16.1587   -0.8209 C.3     1  UNL1        0.0215
     18 C          18.2975   16.0529   -1.6498 C.3     1  UNL1        0.0018
     19 C          20.4085   19.6669   -1.2978 C.3     1  UNL1        0.0937
     20 C          19.4495   19.6258   -2.4505 C.3     1  UNL1        0.0215
     21 C          19.8052   18.8684   -3.6954 C.3     1  UNL1        0.0018
     22 C          24.9501   25.0065    1.8061 C.3     1  UNL1        0.1874
     23 O          25.9079   24.7071    2.9209 O.3     1  UNL1       -0.3773
     24 H          26.8139   24.4254    2.7194 H       1  UNL1        0.2107
     25 C          23.5489   25.4421    2.1177 C.3     1  UNL1        0.1603
     26 N          23.1308   26.8100    2.5695 N.4     1  UNL1        0.2749
     27 C          21.6433   26.7996    2.7634 C.3     1  UNL1        0.2084
     28 N          21.1423   25.4252    2.4314 N.am    1  UNL1       -0.2241
     29 C          22.3200   24.5863    2.0324 C.2     1  UNL1        0.2820
     30 O          22.2764   23.1446    1.6204 O.2     1  UNL1       -0.2685
     31 H          23.7493   27.6072    2.7186 H       1  UNL1        0.2058
     32 H          22.6981   27.6802    2.8790 H       1  UNL1        0.2058
     33 C          19.7143   24.9698    2.4884 C.3     1  UNL1        0.1257
     34 C          19.1235   24.2081    1.3392 C.ar    1  UNL1       -0.0021
     35 C          19.2079   24.7638   -0.0515 C.ar    1  UNL1       -0.0026
     36 C          18.6171   24.0022   -1.2008 C.ar    1  UNL1       -0.0003
     37 C          17.9418   22.6847   -0.9594 C.ar    1  UNL1       -0.0000
     38 C          17.8573   22.1290    0.4313 C.ar    1  UNL1       -0.0003
     39 C          18.4481   22.8906    1.5806 C.ar    1  UNL1       -0.0026
     40 C          26.3076   25.8957   -0.2228 C.3     1  UNL1        0.0487
     41 F          29.0286   28.9687    2.9635 F       1  UNL1       -0.2041
     42 C          27.8595   28.7567    2.0478 C.ar    1  UNL1        0.1421
     43 C          27.6680   27.4322    1.3703 C.ar    1  UNL1        0.0256
     44 C          26.4990   27.2202    0.4547 C.ar    1  UNL1       -0.0160
     45 C          25.5215   28.3327    0.2165 C.ar    1  UNL1        0.0256
     46 C          25.7130   29.6572    0.8940 C.ar    1  UNL1        0.1421
     47 F          24.7354   30.7698    0.6558 F       1  UNL1       -0.2041
     48 C          26.8820   29.8692    1.8096 C.ar    1  UNL1        0.0592
@<TRIPOS>UNITY_ATOM_ATTR
26 1
charge 1
@<TRIPOS>BOND
     1    41    42    1
     2    42    43   ar
     3    43    44   ar
     4    44    45   ar
     5    45    46   ar
     6    46    47    1
     7    46    48   ar
     8    44    40    1
     9     1    40    1
    10     1     2    1
    11     2     3   am
    12     3     4    2
    13     3     6    1
    14     6     7   ar
    15     7     8   ar
    16     8     9   ar
    17     9    10   ar
    18    10    11   ar
    19    10    12    1
    20     8    13    1
    21    13    14    2
    22    13    15   am
    23    15    16    1
    24    16    17    1
    25    17    18    1
    26    15    19    1
    27    19    20    1
    28    20    21    1
    29     1    22    1
    30    22    23    1
    31    22    25    1
    32    25    26    1
    33    26    27    1
    34    27    28    1
    35    28    33    1
    36    33    34    1
    37    34    35   ar
    38    35    36   ar
    39    36    37   ar
    40    37    38   ar
    41    38    39   ar
    42    28    29   am
    43    29    30    2
    44    48    42   ar
    45    11     6   ar
    46    29    25    1
    47    39    34   ar
    48     2     5    1
    49    23    24    1
    50    26    31    1
    51    26    32    1
@<TRIPOS>MOLECULE
*****
 48 51 0 0 0
SMALL
GASTEIGER

@<TRIPOS>ATOM
      1 C          25.3832   27.7461    1.7560 C.3     1  UNL1        0.1092
      2 N          25.5304   28.8073    0.7061 N.am    1  UNL1       -0.2995
      3 C          24.6934   28.7530   -0.5375 C.2     1  UNL1        0.2459
      4 O          23.7093   27.6376   -0.7312 O.2     1  UNL1       -0.2701
      5 H          26.1762   29.5393    0.8333 H       1  UNL1        0.1498
      6 C          24.8405   29.8142   -1.5874 C.ar    1  UNL1        0.0532
      7 C          25.0563   31.2428   -1.1847 C.ar    1  UNL1        0.0090
      8 C          25.2034   32.3041   -2.2346 C.ar    1  UNL1        0.0534
      9 C          25.1347   31.9365   -3.6872 C.ar    1  UNL1        0.0003
     10 C          24.9190   30.5077   -4.0899 C.ar    1  UNL1       -0.0216
     11 C          24.7719   29.4466   -3.0400 C.ar    1  UNL1        0.0003
     12 C          24.8503   30.1401   -5.5426 C.3     1  UNL1        0.0310
     13 C          25.4192   33.7327   -1.8318 C.2     1  UNL1        0.2490
     14 O          26.8122   34.2584   -1.6492 O.2     1  UNL1       -0.2699
     15 N          24.2419   34.6359   -1.6116 N.am    1  UNL1       -0.2761
     16 C          24.4578   36.0646   -1.2089 C.3     1  UNL1        0.0937
     17 C          23.4119   37.0959   -1.5135 C.3     1  UNL1        0.0215
     18 C          22.5037   37.5871   -0.4255 C.3     1  UNL1        0.0018
     19 C          22.8490   34.1103   -1.7942 C.3     1  UNL1        0.0937
     20 C          22.0571   33.6552   -0.6043 C.3     1  UNL1        0.0215
     21 C          22.5941   33.8680    0.7800 C.3     1  UNL1        0.0018
     22 C          24.2332   27.7968    2.7177 C.3     1  UNL1        0.1874
     23 O          24.2652   28.7498    3.8756 O.3     1  UNL1       -0.3773
     24 H          25.0296   29.3332    4.0025 H       1  UNL1        0.2107
     25 C          23.0510   26.8945    2.5214 C.3     1  UNL1        0.1603
     26 N          23.0716   25.3950    2.5533 N.4     1  UNL1        0.2749
     27 C          21.6741   24.9070    2.3104 C.3     1  UNL1        0.2084
     28 N          20.7899   26.1050    2.1283 N.am    1  UNL1       -0.2241
     29 C          21.6409   27.3333    2.2587 C.2     1  UNL1        0.2820
     30 O          21.1654   28.7514    2.1462 O.2     1  UNL1       -0.2685
     31 H          23.8918   24.8098    2.7123 H       1  UNL1        0.2058
     32 H          22.9284   24.3851    2.5465 H       1  UNL1        0.2058
     33 C          19.3139   26.0792    1.8625 C.3     1  UNL1        0.1257
     34 C          18.7012   24.9124    1.1461 C.ar    1  UNL1       -0.0021
     35 C          17.7304   24.0194    1.8604 C.ar    1  UNL1       -0.0026
     36 C          17.1176   22.8526    1.1441 C.ar    1  UNL1       -0.0003
     37 C          17.4756   22.5788   -0.2866 C.ar    1  UNL1       -0.0000
     38 C          18.4464   23.4717   -1.0009 C.ar    1  UNL1       -0.0003
     39 C          19.0592   24.6385   -0.2846 C.ar    1  UNL1       -0.0026
     40 C          26.3862   26.6342    1.8443 C.3     1  UNL1        0.0487
     41 F          25.1514   22.2495   -0.6557 F       1  UNL1       -0.2041
     42 C          25.9595   23.5100   -0.5656 C.ar    1  UNL1        0.1421
     43 C          25.7688   24.4418    0.5943 C.ar    1  UNL1        0.0256
     44 C          26.5769   25.7023    0.6843 C.ar    1  UNL1       -0.0160
     45 C          27.5756   26.0311   -0.3854 C.ar    1  UNL1        0.0256
     46 C          27.7663   25.0992   -1.5453 C.ar    1  UNL1        0.1421
     47 F          28.7650   25.4279   -2.6151 F       1  UNL1       -0.2041
     48 C          26.9582   23.8387   -1.6354 C.ar    1  UNL1        0.0592
@<TRIPOS>UNITY_ATOM_ATTR
26 1
charge 1
@<TRIPOS>BOND
     1    41    42    1
     2    42    43   ar
     3    43    44   ar
     4    44    45   ar
     5    45    46   ar
     6    46    47    1
     7    46    48   ar
     8    44    40    1
     9     1    40    1
    10     1     2    1
    11     2     3   am
    12     3     4    2
    13     3     6    1
    14     6     7   ar
    15     7     8   ar
    16     8     9   ar
    17     9    10   ar
    18    10    11   ar
    19    10    12    1
    20     8    13    1
    21    13    14    2
    22    13    15   am
    23    15    16    1
    24    16    17    1
    25    17    18    1
    26    15    19    1
    27    19    20    1
    28    20    21    1
    29     1    22    1
    30    22    23    1
    31    22    25    1
    32    25    26    1
    33    26    27    1
    34    27    28    1
    35    28    33    1
    36    33    34    1
    37    34    35   ar
    38    35    36   ar
    39    36    37   ar
    40    37    38   ar
    41    38    39   ar
    42    28    29   am
    43    29    30    2
    44    48    42   ar
    45    11     6   ar
    46    29    25    1
    47    39    34   ar
    48     2     5    1
    49    23    24    1
    50    26    31    1
    51    26    32    1
@<TRIPOS>MOLECULE
*****
 48 51 0 0 0
SMALL
GASTEIGER

@<TRIPOS>ATOM
      1 C          25.2238   26.5775    0.1978 C.3     1  UNL1        0.1092
      2 N          24.9893   25.2185   -0.3922 N.am    1  UNL1       -0.2995
      3 C          26.0730   24.1825   -0.3436 C.2     1  UNL1        0.2459
      4 O          27.3913   24.5057    0.2950 O.2     1  UNL1       -0.2701
      5 H          24.1241   25.0064   -0.8114 H       1  UNL1        0.1498
      6 C          25.8386   22.8236   -0.9336 C.ar    1  UNL1        0.0532
      7 C          25.2809   21.7222   -0.0817 C.ar    1  UNL1        0.0090
      8 C          25.0464   20.3631   -0.6717 C.ar    1  UNL1        0.0534
      9 C          25.3696   20.1055   -2.1136 C.ar    1  UNL1        0.0003
     10 C          25.9273   21.2070   -2.9656 C.ar    1  UNL1       -0.0216
     11 C          26.1618   22.5660   -2.3756 C.ar    1  UNL1        0.0003
     12 C          26.2505   20.9494   -4.4075 C.3     1  UNL1        0.0310
     13 C          24.4887   19.2617    0.1802 C.2     1  UNL1        0.2490
     14 O          25.4134   18.3801    0.9663 O.2     1  UNL1       -0.2699
     15 N          23.0064   19.0418    0.2462 N.am    1  UNL1       -0.2761
     16 C          22.4487   17.9403    1.0982 C.3     1  UNL1        0.0937
     17 C          22.3362   16.5497    0.5472 C.3     1  UNL1        0.0215
     18 C          22.9640   16.2130   -0.7728 C.3     1  UNL1        0.0018
     19 C          22.0817   19.9233   -0.5398 C.3     1  UNL1        0.0937
     20 C          21.3203   19.3626   -1.7043 C.3     1  UNL1        0.0215
     21 C          19.9342   18.8250   -1.5053 C.3     1  UNL1        0.0018
     22 C          24.7865   26.8710    1.6023 C.3     1  UNL1        0.1874
     23 O          25.8084   27.1668    2.6597 O.3     1  UNL1       -0.3773
     24 H          26.7521   27.1682    2.4353 H       1  UNL1        0.2107
     25 C          23.3271   26.8688    1.9493 C.3     1  UNL1        0.1603
     26 N          22.5250   28.0557    2.3941 N.4     1  UNL1        0.2749
     27 C          21.1158   27.5998    2.6323 C.3     1  UNL1        0.2084
     28 N          21.0472   26.1312    2.3346 N.am    1  UNL1       -0.2241
     29 C          22.4139   25.6794    1.9125 C.2     1  UNL1        0.2820
     30 O          22.7997   24.2835    1.5221 O.2     1  UNL1       -0.2685
     31 H          22.8760   29.0059    2.5137 H       1  UNL1        0.2058
     32 H          21.8563   28.7608    2.7042 H       1  UNL1        0.2058
     33 C          19.8264   25.2662    2.4404 C.3     1  UNL1        0.1257
     34 C          19.4447   24.3652    1.3035 C.ar    1  UNL1       -0.0021
     35 C          18.9995   24.9532   -0.0027 C.ar    1  UNL1       -0.0026
     36 C          18.6179   24.0522   -1.1396 C.ar    1  UNL1       -0.0003
     37 C          18.6814   22.5631   -0.9703 C.ar    1  UNL1       -0.0000
     38 C          19.1266   21.9751    0.3358 C.ar    1  UNL1       -0.0003
     39 C          19.5083   22.8761    1.4727 C.ar    1  UNL1       -0.0026
     40 C          25.8957   27.6430   -0.6167 C.3     1  UNL1        0.0487
     41 F          23.3224   32.0021    0.5563 F       1  UNL1       -0.2041
     42 C          23.8367   31.0323   -0.4660 C.ar    1  UNL1        0.1421
     43 C          24.6090   29.8226   -0.0302 C.ar    1  UNL1        0.0256
     44 C          25.1233   28.8528   -1.0525 C.ar    1  UNL1       -0.0160
     45 C          24.8652   29.0927   -2.5105 C.ar    1  UNL1        0.0256
     46 C          24.0929   30.3025   -2.9462 C.ar    1  UNL1        0.1421
     47 F          23.8348   30.5425   -4.4043 F       1  UNL1       -0.2041
     48 C          23.5786   31.2723   -1.9240 C.ar    1  UNL1        0.0592
@<TRIPOS>UNITY_ATOM_ATTR
26 1
charge 1
@<TRIPOS>BOND
     1    41    42    1
     2    42    43   ar
     3    43    44   ar
     4    44    45   ar
     5    45    46   ar
     6    46    47    1
     7    46    48   ar
     8    44    40    1
     9     1    40    1
    10     1     2    1
    11     2     3   am
    12     3     4    2
    13     3     6    1
    14     6     7   ar
    15     7     8   ar
    16     8     9   ar
    17     9    10   ar
    18    10    11   ar
    19    10    12    1
    20     8    13    1
    21    13    14    2
    22    13    15   am
    23    15    16    1
    24    16    17    1
    25    17    18    1
    26    15    19    1
    27    19    20    1
    28    20    21    1
    29     1    22    1
    30    22    23    1
    31    22    25    1
    32    25    26    1
    33    26    27    1
    34    27    28    1
    35    28    33    1
    36    33    34    1
    37    34    35   ar
    38    35    36   ar
    39    36    37   ar
    40    37    38   ar
    41    38    39   ar
    42    28    29   am
    43    29    30    2
    44    48    42   ar
    45    11     6   ar
    46    29    25    1
    47    39    34   ar
    48     2     5    1
    49    23    24    1
    50    26    31    1
    51    26    32    1
@<TRIPOS>MOLECULE
*****
 48 51 0 0 0
SMALL
GASTEIGER

@<TRIPOS>ATOM
      1 C          25.2411   24.9418    0.4081 C.3     1  UNL1        0.1092
      2 N          24.7959   23.5900   -0.0657 N.am    1  UNL1       -0.2995
      3 C          25.7617   22.6887   -0.7761 C.2     1  UNL1        0.2459
      4 O          27.1728   23.1392   -1.0128 O.2     1  UNL1       -0.2701
      5 H          23.8697   23.2943    0.0897 H       1  UNL1        0.1498
      6 C          25.3166   21.3369   -1.2499 C.ar    1  UNL1        0.0532
      7 C          24.5607   20.4295   -0.3251 C.ar    1  UNL1        0.0090
      8 C          24.1155   19.0777   -0.7989 C.ar    1  UNL1        0.0534
      9 C          24.4263   18.6333   -2.1974 C.ar    1  UNL1        0.0003
     10 C          25.1822   19.5407   -3.1222 C.ar    1  UNL1       -0.0216
     11 C          25.6273   20.8925   -2.6484 C.ar    1  UNL1        0.0003
     12 C          25.4930   19.0963   -4.5208 C.3     1  UNL1        0.0310
     13 C          23.3596   18.1703    0.1259 C.2     1  UNL1        0.2490
     14 O          24.0959   17.3706    1.1596 O.2     1  UNL1       -0.2699
     15 N          21.8674   18.0626    0.0171 N.am    1  UNL1       -0.2761
     16 C          21.1115   17.1552    0.9419 C.3     1  UNL1        0.0937
     17 C          20.9408   15.7055    0.5964 C.3     1  UNL1        0.0215
     18 C          19.5822   15.1718    0.2511 C.3     1  UNL1        0.0018
     19 C          21.1312   18.8623   -1.0166 C.3     1  UNL1        0.0937
     20 C          20.6067   20.2259   -0.6765 C.3     1  UNL1        0.0215
     21 C          20.8165   20.7888    0.6980 C.3     1  UNL1        0.0018
     22 C          24.9575   25.3739    1.8162 C.3     1  UNL1        0.1874
     23 O          26.0596   25.3853    2.8337 O.3     1  UNL1       -0.3773
     24 H          26.9557   25.1132    2.5810 H       1  UNL1        0.2107
     25 C          23.5717   25.7947    2.2070 C.3     1  UNL1        0.1603
     26 N          23.1649   27.1590    2.6794 N.4     1  UNL1        0.2749
     27 C          21.6912   27.1326    2.9583 C.3     1  UNL1        0.2084
     28 N          21.1873   25.7519    2.6582 N.am    1  UNL1       -0.2241
     29 C          22.3496   24.9251    2.1939 C.2     1  UNL1        0.2820
     30 O          22.2987   23.4821    1.7877 O.2     1  UNL1       -0.2685
     31 H          23.7819   27.9634    2.7914 H       1  UNL1        0.2058
     32 H          22.7409   28.0252    3.0116 H       1  UNL1        0.2058
     33 C          19.7702   25.2808    2.7979 C.3     1  UNL1        0.1257
     34 C          19.1232   24.5095    1.6860 C.ar    1  UNL1       -0.0021
     35 C          19.3284   24.9321    0.2615 C.ar    1  UNL1       -0.0026
     36 C          18.6813   24.1607   -0.8504 C.ar    1  UNL1       -0.0003
     37 C          17.8291   22.9666   -0.5378 C.ar    1  UNL1       -0.0000
     38 C          17.6238   22.5439    0.8867 C.ar    1  UNL1       -0.0003
     39 C          18.2708   23.3153    1.9986 C.ar    1  UNL1       -0.0026
     40 C          25.9699   25.8615   -0.5263 C.3     1  UNL1        0.0487
     41 F          22.9577   29.9378   -1.6711 F       1  UNL1       -0.2041
     42 C          24.2034   29.3761   -1.0525 C.ar    1  UNL1        0.1421
     43 C          24.4638   27.8997   -1.0987 C.ar    1  UNL1        0.0256
     44 C          25.7095   27.3380   -0.4800 C.ar    1  UNL1       -0.0160
     45 C          26.6949   28.2529    0.1848 C.ar    1  UNL1        0.0256
     46 C          26.4345   29.7294    0.2310 C.ar    1  UNL1        0.1421
     47 F          27.4199   30.6443    0.8958 F       1  UNL1       -0.2041
     48 C          25.1888   30.2910   -0.3876 C.ar    1  UNL1        0.0592
@<TRIPOS>UNITY_ATOM_ATTR
26 1
charge 1
@<TRIPOS>BOND
     1    41    42    1
     2    42    43   ar
     3    43    44   ar
     4    44    45   ar
     5    45    46   ar
     6    46    47    1
     7    46    48   ar
     8    44    40    1
     9     1    40    1
    10     1     2    1
    11     2     3   am
    12     3     4    2
    13     3     6    1
    14     6     7   ar
    15     7     8   ar
    16     8     9   ar
    17     9    10   ar
    18    10    11   ar
    19    10    12    1
    20     8    13    1
    21    13    14    2
    22    13    15   am
    23    15    16    1
    24    16    17    1
    25    17    18    1
    26    15    19    1
    27    19    20    1
    28    20    21    1
    29     1    22    1
    30    22    23    1
    31    22    25    1
    32    25    26    1
    33    26    27    1
    34    27    28    1
    35    28    33    1
    36    33    34    1
    37    34    35   ar
    38    35    36   ar
    39    36    37   ar
    40    37    38   ar
    41    38    39   ar
    42    28    29   am
    43    29    30    2
    44    48    42   ar
    45    11     6   ar
    46    29    25    1
    47    39    34   ar
    48     2     5    1
    49    23    24    1
    50    26    31    1
    51    26    32    1
@<TRIPOS>MOLECULE
*****
 48 51 0 0 0
SMALL
GASTEIGER

@<TRIPOS>ATOM
      1 C          25.5235   27.4313    1.4421 C.3     1  UNL1        0.1092
      2 N          25.7983   28.4230    0.3508 N.am    1  UNL1       -0.2995
      3 C          26.5492   29.6852    0.6560 C.2     1  UNL1        0.2459
      4 O          27.0253   29.9556    2.0525 O.2     1  UNL1       -0.2701
      5 H          25.4858   28.2455   -0.5658 H       1  UNL1        0.1498
      6 C          26.8240   30.6769   -0.4353 C.ar    1  UNL1        0.0532
      7 C          28.1161   31.4387   -0.4485 C.ar    1  UNL1        0.0090
      8 C          28.3909   32.4305   -1.5398 C.ar    1  UNL1        0.0534
      9 C          27.3737   32.6604   -2.6179 C.ar    1  UNL1        0.0003
     10 C          26.0815   31.8986   -2.6047 C.ar    1  UNL1       -0.0216
     11 C          25.8067   30.9069   -1.5134 C.ar    1  UNL1        0.0003
     12 C          25.0643   32.1285   -3.6828 C.3     1  UNL1        0.0310
     13 C          29.6830   33.1922   -1.5530 C.2     1  UNL1        0.2490
     14 O          30.7846   32.7845   -2.4859 O.2     1  UNL1       -0.2699
     15 N          29.8736   34.3617   -0.6332 N.am    1  UNL1       -0.2761
     16 C          31.1657   35.1235   -0.6464 C.3     1  UNL1        0.0937
     17 C          31.8816   35.4083    0.6406 C.3     1  UNL1        0.0215
     18 C          32.6738   36.6727    0.7943 C.3     1  UNL1        0.0018
     19 C          28.7721   34.7695    0.2997 C.3     1  UNL1        0.0937
     20 C          27.7277   35.7460   -0.1542 C.3     1  UNL1        0.0215
     21 C          28.0870   37.1881   -0.3569 C.3     1  UNL1        0.0018
     22 C          24.3706   27.6456    2.3774 C.3     1  UNL1        0.1874
     23 O          24.4140   28.7624    3.3778 O.3     1  UNL1       -0.3773
     24 H          25.1876   29.3461    3.4199 H       1  UNL1        0.2107
     25 C          23.1742   26.7430    2.3124 C.3     1  UNL1        0.1603
     26 N          23.1960   25.2445    2.3761 N.4     1  UNL1        0.2749
     27 C          21.7813   24.7558    2.2753 C.3     1  UNL1        0.2084
     28 N          20.8854   25.9523    2.1494 N.am    1  UNL1       -0.2241
     29 C          21.7463   27.1804    2.1723 C.2     1  UNL1        0.2820
     30 O          21.2640   28.5972    2.0726 O.2     1  UNL1       -0.2685
     31 H          24.0267   24.6604    2.4712 H       1  UNL1        0.2058
     32 H          23.0515   24.2352    2.4054 H       1  UNL1        0.2058
     33 C          19.3911   25.9254    2.0227 C.3     1  UNL1        0.1257
     34 C          18.7244   24.8340    1.2390 C.ar    1  UNL1       -0.0021
     35 C          19.0722   24.6277   -0.2055 C.ar    1  UNL1       -0.0026
     36 C          18.4055   23.5363   -0.9892 C.ar    1  UNL1       -0.0003
     37 C          17.3908   22.6510   -0.3284 C.ar    1  UNL1       -0.0000
     38 C          17.0428   22.8572    1.1161 C.ar    1  UNL1       -0.0003
     39 C          17.7096   23.9486    1.8998 C.ar    1  UNL1       -0.0026
     40 C          26.4017   26.2253    1.5981 C.3     1  UNL1        0.0487
     41 F          28.9147   24.9326   -2.7624 F       1  UNL1       -0.2041
     42 C          27.8589   24.6429   -1.7370 C.ar    1  UNL1        0.1421
     43 C          27.6582   25.5789   -0.5821 C.ar    1  UNL1        0.0256
     44 C          26.6024   25.2892    0.4433 C.ar    1  UNL1       -0.0160
     45 C          25.7474   24.0636    0.3139 C.ar    1  UNL1        0.0256
     46 C          25.9481   23.1277   -0.8410 C.ar    1  UNL1        0.1421
     47 F          25.0931   21.9020   -0.9704 F       1  UNL1       -0.2041
     48 C          27.0039   23.4173   -1.8664 C.ar    1  UNL1        0.0592
@<TRIPOS>UNITY_ATOM_ATTR
26 1
charge 1
@<TRIPOS>BOND
     1    41    42    1
     2    42    43   ar
     3    43    44   ar
     4    44    45   ar
     5    45    46   ar
     6    46    47    1
     7    46    48   ar
     8    44    40    1
     9     1    40    1
    10     1     2    1
    11     2     3   am
    12     3     4    2
    13     3     6    1
    14     6     7   ar
    15     7     8   ar
    16     8     9   ar
    17     9    10   ar
    18    10    11   ar
    19    10    12    1
    20     8    13    1
    21    13    14    2
    22    13    15   am
    23    15    16    1
    24    16    17    1
    25    17    18    1
    26    15    19    1
    27    19    20    1
    28    20    21    1
    29     1    22    1
    30    22    23    1
    31    22    25    1
    32    25    26    1
    33    26    27    1
    34    27    28    1
    35    28    33    1
    36    33    34    1
    37    34    35   ar
    38    35    36   ar
    39    36    37   ar
    40    37    38   ar
    41    38    39   ar
    42    28    29   am
    43    29    30    2
    44    48    42   ar
    45    11     6   ar
    46    29    25    1
    47    39    34   ar
    48     2     5    1
    49    23    24    1
    50    26    31    1
    51    26    32    1
@<TRIPOS>MOLECULE
*****
 48 51 0 0 0
SMALL
GASTEIGER

@<TRIPOS>ATOM
      1 C          25.2278   27.8400    1.6342 C.3     1  UNL1        0.1092
      2 N          25.1834   28.8540    0.5298 N.am    1  UNL1       -0.2995
      3 C          24.3436   28.6012   -0.6872 C.2     1  UNL1        0.2459
      4 O          23.5483   27.3343   -0.7996 O.2     1  UNL1       -0.2701
      5 H          25.7053   29.6855    0.6036 H       1  UNL1        0.1498
      6 C          24.2991   29.6152   -1.7916 C.ar    1  UNL1        0.0532
      7 C          23.6995   30.9676   -1.5443 C.ar    1  UNL1        0.0090
      8 C          23.6549   31.9817   -2.6487 C.ar    1  UNL1        0.0534
      9 C          24.2100   31.6432   -4.0005 C.ar    1  UNL1        0.0003
     10 C          24.8097   30.2906   -4.2478 C.ar    1  UNL1       -0.0216
     11 C          24.8542   29.2767   -3.1434 C.ar    1  UNL1        0.0003
     12 C          25.3648   29.9521   -5.5996 C.3     1  UNL1        0.0310
     13 C          23.0553   33.3342   -2.4014 C.2     1  UNL1        0.2490
     14 O          21.6012   33.5727   -2.6822 O.2     1  UNL1       -0.2699
     15 N          23.9097   34.4482   -1.8733 N.am    1  UNL1       -0.2761
     16 C          23.3100   35.8007   -1.6260 C.3     1  UNL1        0.0937
     17 C          23.2983   36.3738   -0.2398 C.3     1  UNL1        0.0215
     18 C          24.1768   37.5422    0.0962 C.3     1  UNL1        0.0018
     19 C          25.3638   34.2098   -1.5925 C.3     1  UNL1        0.0937
     20 C          26.4034   34.6901   -2.5613 C.3     1  UNL1        0.0215
     21 C          27.1569   33.7035   -3.4032 C.3     1  UNL1        0.0018
     22 C          24.1197   27.7811    2.6434 C.3     1  UNL1        0.1874
     23 O          24.1130   28.7288    3.8061 O.3     1  UNL1       -0.3773
     24 H          24.8253   29.3797    3.9054 H       1  UNL1        0.2107
     25 C          23.0182   26.7745    2.4899 C.3     1  UNL1        0.1603
     26 N          23.1929   25.2921    2.3416 N.4     1  UNL1        0.2749
     27 C          21.8313   24.6750    2.2178 C.3     1  UNL1        0.2084
     28 N          20.8151   25.7761    2.2896 N.am    1  UNL1       -0.2241
     29 C          21.5486   27.0736    2.4578 C.2     1  UNL1        0.2820
     30 O          20.9227   28.4318    2.5736 O.2     1  UNL1       -0.2685
     31 H          24.0816   24.7916    2.3273 H       1  UNL1        0.2058
     32 H          23.1519   24.2787    2.2332 H       1  UNL1        0.2058
     33 C          19.3268   25.6089    2.2077 C.3     1  UNL1        0.1257
     34 C          18.7342   24.6305    1.2373 C.ar    1  UNL1       -0.0021
     35 C          17.7437   23.6091    1.7125 C.ar    1  UNL1       -0.0026
     36 C          17.1512   22.6307    0.7422 C.ar    1  UNL1       -0.0003
     37 C          17.5492   22.6735   -0.7034 C.ar    1  UNL1       -0.0000
     38 C          18.5396   23.6949   -1.1787 C.ar    1  UNL1       -0.0003
     39 C          19.1322   24.6733   -0.2083 C.ar    1  UNL1       -0.0026
     40 C          26.3805   26.8849    1.7295 C.3     1  UNL1        0.0487
     41 F          28.7739   25.5506   -2.6855 F       1  UNL1       -0.2041
     42 C          27.8201   25.2238   -1.5748 C.ar    1  UNL1        0.1421
     43 C          27.5772   26.2177   -0.4780 C.ar    1  UNL1        0.0256
     44 C          26.6235   25.8908    0.6326 C.ar    1  UNL1       -0.0160
     45 C          25.9127   24.5700    0.6465 C.ar    1  UNL1        0.0256
     46 C          26.1556   23.5761   -0.4503 C.ar    1  UNL1        0.1421
     47 F          25.4448   22.2552   -0.4365 F       1  UNL1       -0.2041
     48 C          27.1094   23.9030   -1.5610 C.ar    1  UNL1        0.0592
@<TRIPOS>UNITY_ATOM_ATTR
26 1
charge 1
@<TRIPOS>BOND
     1    41    42    1
     2    42    43   ar
     3    43    44   ar
     4    44    45   ar
     5    45    46   ar
     6    46    47    1
     7    46    48   ar
     8    44    40    1
     9     1    40    1
    10     1     2    1
    11     2     3   am
    12     3     4    2
    13     3     6    1
    14     6     7   ar
    15     7     8   ar
    16     8     9   ar
    17     9    10   ar
    18    10    11   ar
    19    10    12    1
    20     8    13    1
    21    13    14    2
    22    13    15   am
    23    15    16    1
    24    16    17    1
    25    17    18    1
    26    15    19    1
    27    19    20    1
    28    20    21    1
    29     1    22    1
    30    22    23    1
    31    22    25    1
    32    25    26    1
    33    26    27    1
    34    27    28    1
    35    28    33    1
    36    33    34    1
    37    34    35   ar
    38    35    36   ar
    39    36    37   ar
    40    37    38   ar
    41    38    39   ar
    42    28    29   am
    43    29    30    2
    44    48    42   ar
    45    11     6   ar
    46    29    25    1
    47    39    34   ar
    48     2     5    1
    49    23    24    1
    50    26    31    1
    51    26    32    1
@<TRIPOS>MOLECULE
*****
 48 51 0 0 0
SMALL
GASTEIGER

@<TRIPOS>ATOM
      1 C          25.2811   27.7567    1.6006 C.3     1  UNL1        0.1092
      2 N          25.2717   28.7366    0.4650 N.am    1  UNL1       -0.2995
      3 C          24.4031   28.4886   -0.7325 C.2     1  UNL1        0.2459
      4 O          23.5438   27.2606   -0.7943 O.2     1  UNL1       -0.2701
      5 H          25.8357   29.5426    0.5056 H       1  UNL1        0.1498
      6 C          24.3937   29.4685   -1.8681 C.ar    1  UNL1        0.0532
      7 C          25.0841   29.1304   -3.1561 C.ar    1  UNL1        0.0090
      8 C          25.0747   30.1103   -4.2919 C.ar    1  UNL1        0.0534
      9 C          24.3750   31.4283   -4.1395 C.ar    1  UNL1        0.0003
     10 C          23.6846   31.7664   -2.8513 C.ar    1  UNL1       -0.0216
     11 C          23.6940   30.7865   -1.7157 C.ar    1  UNL1        0.0003
     12 C          22.9849   33.0844   -2.6989 C.3     1  UNL1        0.0310
     13 C          25.7651   29.7722   -5.5799 C.2     1  UNL1        0.2490
     14 O          24.9616   29.3388   -6.7702 O.2     1  UNL1       -0.2699
     15 N          27.2588   29.8674   -5.6777 N.am    1  UNL1       -0.2761
     16 C          27.9492   29.5292   -6.9658 C.3     1  UNL1        0.0937
     17 C          29.4253   29.7553   -7.1074 C.3     1  UNL1        0.0215
     18 C          30.3182   28.6303   -7.5396 C.3     1  UNL1        0.0018
     19 C          28.0623   30.3007   -4.4875 C.3     1  UNL1        0.0937
     20 C          28.1754   31.7577   -4.1490 C.3     1  UNL1        0.0215
     21 C          27.7864   32.2430   -2.7841 C.3     1  UNL1        0.0018
     22 C          24.1768   27.7744    2.6156 C.3     1  UNL1        0.1874
     23 O          24.2384   28.7249    3.7743 O.3     1  UNL1       -0.3773
     24 H          24.9922   29.3282    3.8673 H       1  UNL1        0.2107
     25 C          23.0110   26.8414    2.4719 C.3     1  UNL1        0.1603
     26 N          23.0732   25.3429    2.4931 N.4     1  UNL1        0.2749
     27 C          21.6790   24.8185    2.3161 C.3     1  UNL1        0.2084
     28 N          20.7551   25.9931    2.1856 N.am    1  UNL1       -0.2241
     29 C          21.5784   27.2433    2.2819 C.2     1  UNL1        0.2820
     30 O          21.0601   28.6486    2.2021 O.2     1  UNL1       -0.2685
     31 H          23.9157   24.7793    2.6077 H       1  UNL1        0.2058
     32 H          22.9569   24.3296    2.4868 H       1  UNL1        0.2058
     33 C          19.2691   25.9288    1.9926 C.3     1  UNL1        0.1257
     34 C          18.6662   24.8265    1.1733 C.ar    1  UNL1       -0.0021
     35 C          17.6876   23.8766    1.7980 C.ar    1  UNL1       -0.0026
     36 C          17.0847   22.7743    0.9786 C.ar    1  UNL1       -0.0003
     37 C          17.4604   22.6217   -0.4655 C.ar    1  UNL1       -0.0000
     38 C          18.4390   23.5715   -1.0903 C.ar    1  UNL1       -0.0003
     39 C          19.0419   24.6739   -0.2710 C.ar    1  UNL1       -0.0026
     40 C          26.3947   26.7590    1.7212 C.3     1  UNL1        0.0487
     41 F          28.7236   25.3201   -2.6953 F       1  UNL1       -0.2041
     42 C          27.7773   25.0245   -1.5697 C.ar    1  UNL1        0.1421
     43 C          27.5592   26.0395   -0.4871 C.ar    1  UNL1        0.0256
     44 C          26.6128   25.7439    0.6385 C.ar    1  UNL1       -0.0160
     45 C          25.8845   24.4333    0.6815 C.ar    1  UNL1        0.0256
     46 C          26.1026   23.4183   -0.4011 C.ar    1  UNL1        0.1421
     47 F          25.3743   22.1076   -0.3582 F       1  UNL1       -0.2041
     48 C          27.0490   23.7139   -1.5267 C.ar    1  UNL1        0.0592
@<TRIPOS>UNITY_ATOM_ATTR
26 1
charge 1
@<TRIPOS>BOND
     1    41    42    1
     2    42    43   ar
     3    43    44   ar
     4    44    45   ar
     5    45    46   ar
     6    46    47    1
     7    46    48   ar
     8    44    40    1
     9     1    40    1
    10     1     2    1
    11     2     3   am
    12     3     4    2
    13     3     6    1
    14     6     7   ar
    15     7     8   ar
    16     8     9   ar
    17     9    10   ar
    18    10    11   ar
    19    10    12    1
    20     8    13    1
    21    13    14    2
    22    13    15   am
    23    15    16    1
    24    16    17    1
    25    17    18    1
    26    15    19    1
    27    19    20    1
    28    20    21    1
    29     1    22    1
    30    22    23    1
    31    22    25    1
    32    25    26    1
    33    26    27    1
    34    27    28    1
    35    28    33    1
    36    33    34    1
    37    34    35   ar
    38    35    36   ar
    39    36    37   ar
    40    37    38   ar
    41    38    39   ar
    42    28    29   am
    43    29    30    2
    44    48    42   ar
    45    11     6   ar
    46    29    25    1
    47    39    34   ar
    48     2     5    1
    49    23    24    1
    50    26    31    1
    51    26    32    1
@<TRIPOS>MOLECULE
*****
 48 51 0 0 0
SMALL
GASTEIGER

@<TRIPOS>ATOM
      1 C          25.2790   27.3527    1.6408 C.3     1  UNL1        0.1092
      2 N          25.5013   28.2866    0.4883 N.am    1  UNL1       -0.2995
      3 C          26.8336   28.9519    0.3083 C.2     1  UNL1        0.2459
      4 O          27.9436   28.6831    1.2809 O.2     1  UNL1       -0.2701
      5 H          24.7728   28.4630   -0.1500 H       1  UNL1        0.1498
      6 C          27.0560   29.8858   -0.8442 C.ar    1  UNL1        0.0532
      7 C          27.2434   31.3530   -0.5951 C.ar    1  UNL1        0.0090
      8 C          27.4658   32.2871   -1.7476 C.ar    1  UNL1        0.0534
      9 C          27.5008   31.7538   -3.1492 C.ar    1  UNL1        0.0003
     10 C          27.3134   30.2864   -3.3982 C.ar    1  UNL1       -0.0216
     11 C          27.0910   29.3525   -2.2457 C.ar    1  UNL1        0.0003
     12 C          27.3485   29.7531   -4.7998 C.3     1  UNL1        0.0310
     13 C          27.6532   33.7543   -1.4985 C.2     1  UNL1        0.2490
     14 O          29.0318   34.3115   -1.3009 O.2     1  UNL1       -0.2699
     15 N          26.4619   34.6644   -1.4470 N.am    1  UNL1       -0.2761
     16 C          26.6494   36.1317   -1.1980 C.3     1  UNL1        0.0937
     17 C          26.8034   36.6406    0.2046 C.3     1  UNL1        0.0215
     18 C          26.5038   38.0765    0.5186 C.3     1  UNL1        0.0018
     19 C          25.0833   34.1073   -1.6446 C.3     1  UNL1        0.0937
     20 C          23.8841   34.9111   -1.2374 C.3     1  UNL1        0.0215
     21 C          23.4352   34.9160    0.1938 C.3     1  UNL1        0.0018
     22 C          24.1633   27.6096    2.6099 C.3     1  UNL1        0.1874
     23 O          24.3467   28.6033    3.7185 O.3     1  UNL1       -0.3773
     24 H          25.1869   29.0797    3.8087 H       1  UNL1        0.2107
     25 C          22.8641   26.8729    2.4705 C.3     1  UNL1        0.1603
     26 N          21.9383   26.4986    3.5898 N.4     1  UNL1        0.2749
     27 C          20.7646   25.7755    2.9984 C.3     1  UNL1        0.2084
     28 N          20.9651   25.7029    1.5136 N.am    1  UNL1       -0.2241
     29 C          22.2627   26.3812    1.1874 C.2     1  UNL1        0.2820
     30 O          22.8548   26.5398   -0.1816 O.2     1  UNL1       -0.2685
     31 H          22.0817   26.7003    4.5793 H       1  UNL1        0.2058
     32 H          21.2173   26.1793    4.2367 H       1  UNL1        0.2058
     33 C          20.0320   25.0643    0.5281 C.3     1  UNL1        0.1257
     34 C          19.2556   23.8405    0.9148 C.ar    1  UNL1       -0.0021
     35 C          19.9628   22.5304    1.0983 C.ar    1  UNL1       -0.0026
     36 C          19.1864   21.3067    1.4850 C.ar    1  UNL1       -0.0003
     37 C          17.7028   21.3929    1.6882 C.ar    1  UNL1       -0.0000
     38 C          16.9955   22.7029    1.5047 C.ar    1  UNL1       -0.0003
     39 C          17.7719   23.9267    1.1180 C.ar    1  UNL1       -0.0026
     40 C          26.1723   26.1617    1.8242 C.3     1  UNL1        0.0487
     41 F          28.2652   24.5231   -2.6406 F       1  UNL1       -0.2041
     42 C          27.3247   24.3104   -1.4916 C.ar    1  UNL1        0.1421
     43 C          27.2188   25.3424   -0.4082 C.ar    1  UNL1        0.0256
     44 C          26.2782   25.1297    0.7408 C.ar    1  UNL1       -0.0160
     45 C          25.4437   23.8851    0.8064 C.ar    1  UNL1        0.0256
     46 C          25.5496   22.8531   -0.2770 C.ar    1  UNL1        0.1421
     47 F          24.7150   21.6084   -0.2115 F       1  UNL1       -0.2041
     48 C          26.4901   23.0658   -1.4260 C.ar    1  UNL1        0.0592
@<TRIPOS>UNITY_ATOM_ATTR
26 1
charge 1
@<TRIPOS>BOND
     1    41    42    1
     2    42    43   ar
     3    43    44   ar
     4    44    45   ar
     5    45    46   ar
     6    46    47    1
     7    46    48   ar
     8    44    40    1
     9     1    40    1
    10     1     2    1
    11     2     3   am
    12     3     4    2
    13     3     6    1
    14     6     7   ar
    15     7     8   ar
    16     8     9   ar
    17     9    10   ar
    18    10    11   ar
    19    10    12    1
    20     8    13    1
    21    13    14    2
    22    13    15   am
    23    15    16    1
    24    16    17    1
    25    17    18    1
    26    15    19    1
    27    19    20    1
    28    20    21    1
    29     1    22    1
    30    22    23    1
    31    22    25    1
    32    25    26    1
    33    26    27    1
    34    27    28    1
    35    28    33    1
    36    33    34    1
    37    34    35   ar
    38    35    36   ar
    39    36    37   ar
    40    37    38   ar
    41    38    39   ar
    42    28    29   am
    43    29    30    2
    44    48    42   ar
    45    11     6   ar
    46    29    25    1
    47    39    34   ar
    48     2     5    1
    49    23    24    1
    50    26    31    1
    51    26    32    1
@<TRIPOS>MOLECULE
*****
 48 51 0 0 0
SMALL
GASTEIGER

@<TRIPOS>ATOM
      1 C          25.3954   27.6706    1.6667 C.3     1  UNL1        0.1092
      2 N          25.5681   28.7053    0.5945 N.am    1  UNL1       -0.2995
      3 C          24.7987   28.5919   -0.6881 C.2     1  UNL1        0.2459
      4 O          23.8565   27.4438   -0.8985 O.2     1  UNL1       -0.2701
      5 H          26.1865   29.4588    0.7326 H       1  UNL1        0.1498
      6 C          24.9713   29.6266   -1.7603 C.ar    1  UNL1        0.0532
      7 C          26.1088   29.5171   -2.7320 C.ar    1  UNL1        0.0090
      8 C          26.2816   30.5518   -3.8042 C.ar    1  UNL1        0.0534
      9 C          25.3168   31.6959   -3.9048 C.ar    1  UNL1        0.0003
     10 C          24.1792   31.8054   -2.9331 C.ar    1  UNL1       -0.0216
     11 C          24.0065   30.7707   -1.8609 C.ar    1  UNL1        0.0003
     12 C          23.2144   32.9495   -3.0336 C.3     1  UNL1        0.0310
     13 C          27.4190   30.4423   -4.7758 C.2     1  UNL1        0.2490
     14 O          28.7575   31.0261   -4.4326 O.2     1  UNL1       -0.2699
     15 N          27.2181   29.7490   -6.0908 N.am    1  UNL1       -0.2761
     16 C          28.3557   29.6396   -7.0624 C.3     1  UNL1        0.0937
     17 C          28.6066   30.7399   -8.0505 C.3     1  UNL1        0.0215
     18 C          29.7919   31.6435   -7.8818 C.3     1  UNL1        0.0018
     19 C          25.8798   29.1652   -6.4341 C.3     1  UNL1        0.0937
     20 C          24.9408   29.9176   -7.3298 C.3     1  UNL1        0.0215
     21 C          23.6901   30.5237   -6.7656 C.3     1  UNL1        0.0018
     22 C          24.2327   27.7554    2.6105 C.3     1  UNL1        0.1874
     23 O          24.2472   28.7529    3.7307 O.3     1  UNL1       -0.3773
     24 H          25.0085   29.3431    3.8447 H       1  UNL1        0.2107
     25 C          23.0554   26.8428    2.4342 C.3     1  UNL1        0.1603
     26 N          23.0974   25.3435    2.4140 N.4     1  UNL1        0.2749
     27 C          21.6974   24.8432    2.2144 C.3     1  UNL1        0.2084
     28 N          20.7902   26.0334    2.1112 N.am    1  UNL1       -0.2241
     29 C          21.6295   27.2691    2.2470 C.2     1  UNL1        0.2820
     30 O          21.1306   28.6830    2.2034 O.2     1  UNL1       -0.2685
     31 H          23.9315   24.7656    2.5178 H       1  UNL1        0.2058
     32 H          22.9676   24.3324    2.3788 H       1  UNL1        0.2058
     33 C          19.3046   25.9946    1.9079 C.3     1  UNL1        0.1257
     34 C          18.6801   24.8574    1.1551 C.ar    1  UNL1       -0.0021
     35 C          19.0296   24.6299   -0.2858 C.ar    1  UNL1       -0.0026
     36 C          18.4051   23.4927   -1.0386 C.ar    1  UNL1       -0.0003
     37 C          17.4309   22.5830   -0.3506 C.ar    1  UNL1       -0.0000
     38 C          17.0814   22.8104    1.0903 C.ar    1  UNL1       -0.0003
     39 C          17.7059   23.9476    1.8431 C.ar    1  UNL1       -0.0026
     40 C          26.3855   26.5511    1.7950 C.3     1  UNL1        0.0487
     41 F          25.3123   22.0760   -0.6179 F       1  UNL1       -0.2041
     42 C          26.0675   23.3706   -0.5574 C.ar    1  UNL1        0.1421
     43 C          25.8489   24.3135    0.5885 C.ar    1  UNL1        0.0256
     44 C          26.6041   25.6081    0.6490 C.ar    1  UNL1       -0.0160
     45 C          27.5778   25.9599   -0.4364 C.ar    1  UNL1        0.0256
     46 C          27.7964   25.0170   -1.5823 C.ar    1  UNL1        0.1421
     47 F          28.7701   25.3687   -2.6677 F       1  UNL1       -0.2041
     48 C          27.0412   23.7224   -1.6428 C.ar    1  UNL1        0.0592
@<TRIPOS>UNITY_ATOM_ATTR
26 1
charge 1
@<TRIPOS>BOND
     1    41    42    1
     2    42    43   ar
     3    43    44   ar
     4    44    45   ar
     5    45    46   ar
     6    46    47    1
     7    46    48   ar
     8    44    40    1
     9     1    40    1
    10     1     2    1
    11     2     3   am
    12     3     4    2
    13     3     6    1
    14     6     7   ar
    15     7     8   ar
    16     8     9   ar
    17     9    10   ar
    18    10    11   ar
    19    10    12    1
    20     8    13    1
    21    13    14    2
    22    13    15   am
    23    15    16    1
    24    16    17    1
    25    17    18    1
    26    15    19    1
    27    19    20    1
    28    20    21    1
    29     1    22    1
    30    22    23    1
    31    22    25    1
    32    25    26    1
    33    26    27    1
    34    27    28    1
    35    28    33    1
    36    33    34    1
    37    34    35   ar
    38    35    36   ar
    39    36    37   ar
    40    37    38   ar
    41    38    39   ar
    42    28    29   am
    43    29    30    2
    44    48    42   ar
    45    11     6   ar
    46    29    25    1
    47    39    34   ar
    48     2     5    1
    49    23    24    1
    50    26    31    1
    51    26    32    1
@<TRIPOS>MOLECULE
*****
 50 53 0 0 0
SMALL
GASTEIGER

@<TRIPOS>ATOM
      1 C          26.2498   26.8345    0.5336 C.3     1  UNL1        0.1087
      2 N          25.9424   28.1379   -0.1423 N.am    1  UNL1       -0.2996
      3 C          25.0587   28.1642   -1.3541 C.2     1  UNL1        0.2459
      4 O          24.4824   26.8872   -1.8900 O.2     1  UNL1       -0.2701
      5 H          26.3206   28.9760    0.2094 H       1  UNL1        0.1498
      6 C          24.7513   29.4675   -2.0300 C.ar    1  UNL1        0.0532
      7 C          24.6022   30.7180   -1.2152 C.ar    1  UNL1        0.0090
      8 C          24.2948   32.0214   -1.8911 C.ar    1  UNL1        0.0534
      9 C          24.1365   32.0742   -3.3818 C.ar    1  UNL1        0.0003
     10 C          24.2857   30.8236   -4.1966 C.ar    1  UNL1       -0.0216
     11 C          24.5931   29.5203   -3.5207 C.ar    1  UNL1        0.0003
     12 C          24.1274   30.8764   -5.6873 C.3     1  UNL1        0.0310
     13 C          24.1457   33.2719   -1.0763 C.2     1  UNL1        0.2490
     14 O          25.3533   34.0943   -0.7367 O.2     1  UNL1       -0.2699
     15 N          22.7888   33.7002   -0.6012 N.am    1  UNL1       -0.2761
     16 C          22.6397   34.9507    0.2136 C.3     1  UNL1        0.0937
     17 C          22.6557   36.2909   -0.4598 C.3     1  UNL1        0.0215
     18 C          23.7345   37.2810   -0.1342 C.3     1  UNL1        0.0018
     19 C          21.5812   32.8778   -0.9408 C.3     1  UNL1        0.0937
     20 C          21.0717   31.8562    0.0321 C.3     1  UNL1        0.0215
     21 C          21.6288   31.8024    1.4237 C.3     1  UNL1        0.0018
     22 C          25.5128   26.4441    1.7804 C.3     1  UNL1        0.1795
     23 O          26.2458   25.7803    2.9081 O.3     1  UNL1       -0.3776
     24 H          27.1964   25.6034    2.8312 H       1  UNL1        0.2106
     25 N          21.5841   25.8831    1.8062 N.3     1  UNL1       -0.1435
     26 C          23.0541   25.6097    1.6872 C.3     1  UNL1        0.1531
     27 C          24.0427   26.7177    1.8994 C.3     1  UNL1        0.0993
     28 N          23.5613   28.0992    2.2305 N.4     1  UNL1        0.2541
     29 C          22.0912   28.3726    2.3495 C.3     1  UNL1        0.1217
     30 C          21.1026   27.2646    2.1373 C.3     1  UNL1        0.1565
     31 H          24.2335   28.8526    2.3748 H       1  UNL1        0.2035
     32 H          23.2339   29.0386    2.4557 H       1  UNL1        0.2035
     33 S          20.5955   24.7751    1.5941 S.O2    1  UNL1        0.0637
     34 O          21.7005   23.7673    1.7087 O.2     1  UNL1       -0.1528
     35 O          19.4905   25.7830    1.4794 O.2     1  UNL1       -0.1528
     36 C          19.6069   23.6671    1.3819 C.ar    1  UNL1        0.1222
     37 C          18.1358   23.9490    1.4620 C.ar    1  UNL1        0.0199
     38 C          17.1472   22.8410    1.2498 C.ar    1  UNL1        0.0014
     39 C          17.6297   21.4511    0.9576 C.ar    1  UNL1        0.0001
     40 C          19.1008   21.1693    0.8775 C.ar    1  UNL1        0.0014
     41 C          20.0894   22.2773    1.0897 C.ar    1  UNL1        0.0199
     42 C          27.2940   25.9216   -0.0373 C.3     1  UNL1        0.0487
     43 C          26.8899   24.6239   -0.6720 C.ar    1  UNL1       -0.0160
     44 C          25.8714   23.7478   -0.0048 C.ar    1  UNL1        0.0256
     45 C          25.4673   22.4502   -0.6394 C.ar    1  UNL1        0.1421
     46 F          24.4487   21.5741    0.0278 F       1  UNL1       -0.2041
     47 C          26.0817   22.0286   -1.9412 C.ar    1  UNL1        0.0592
     48 C          27.1002   22.9047   -2.6084 C.ar    1  UNL1        0.1421
     49 F          27.7146   22.4830   -3.9103 F       1  UNL1       -0.2041
     50 C          27.5043   24.2023   -1.9738 C.ar    1  UNL1        0.0256
@<TRIPOS>UNITY_ATOM_ATTR
28 1
charge 1
@<TRIPOS>BOND
     1    33    34    2
     2    33    35    2
     3    33    25    1
     4    25    26    1
     5    27    26    1
     6    27    28    1
     7    28    29    1
     8    29    30    1
     9    27    22    1
    10    22    23    1
    11    22     1    1
    12     1     2    1
    13     2     3   am
    14     3     4    2
    15     3     6    1
    16     6     7   ar
    17     7     8   ar
    18     8     9   ar
    19     9    10   ar
    20    10    11   ar
    21    10    12    1
    22     8    13    1
    23    13    14    2
    24    13    15   am
    25    15    16    1
    26    16    17    1
    27    17    18    1
    28    15    19    1
    29    19    20    1
    30    20    21    1
    31     1    42    1
    32    42    43    1
    33    43    44   ar
    34    44    45   ar
    35    45    46    1
    36    45    47   ar
    37    47    48   ar
    38    48    49    1
    39    48    50   ar
    40    33    36    1
    41    36    37   ar
    42    37    38   ar
    43    38    39   ar
    44    39    40   ar
    45    40    41   ar
    46    30    25    1
    47    11     6   ar
    48    50    43   ar
    49    41    36   ar
    50    28    31    1
    51    28    32    1
    52    23    24    1
    53     2     5    1
@<TRIPOS>MOLECULE
*****
 50 53 0 0 0
SMALL
GASTEIGER

@<TRIPOS>ATOM
      1 C          22.6224   25.6655    1.7664 C.3     1  UNL1        0.1087
      2 N          22.7536   26.9308    0.9715 N.am    1  UNL1       -0.2996
      3 C          23.1633   28.2040    1.6507 C.2     1  UNL1        0.2459
      4 O          23.4417   28.2117    3.1247 O.2     1  UNL1       -0.2701
      5 H          22.5709   26.9257    0.0042 H       1  UNL1        0.1498
      6 C          23.2946   29.4693    0.8560 C.ar    1  UNL1        0.0532
      7 C          24.0422   29.4640   -0.4444 C.ar    1  UNL1        0.0090
      8 C          24.1735   30.7294   -1.2392 C.ar    1  UNL1        0.0534
      9 C          23.5572   32.0000   -0.7335 C.ar    1  UNL1        0.0003
     10 C          22.8097   32.0053    0.5669 C.ar    1  UNL1       -0.0216
     11 C          22.6784   30.7400    1.3617 C.ar    1  UNL1        0.0003
     12 C          22.1934   33.2759    1.0726 C.3     1  UNL1        0.0310
     13 C          24.9210   30.7241   -2.5396 C.2     1  UNL1        0.2490
     14 O          24.2583   30.2111   -3.7836 O.2     1  UNL1       -0.2699
     15 N          26.3314   31.2319   -2.5961 N.am    1  UNL1       -0.2761
     16 C          27.0790   31.2266   -3.8965 C.3     1  UNL1        0.0937
     17 C          27.7938   29.9867   -4.3455 C.3     1  UNL1        0.0215
     18 C          28.7059   30.0362   -5.5354 C.3     1  UNL1        0.0018
     19 C          26.9942   31.7449   -1.3520 C.3     1  UNL1        0.0937
     20 C          27.8876   30.8439   -0.5521 C.3     1  UNL1        0.0215
     21 C          27.4053   30.2711    0.7476 C.3     1  UNL1        0.0018
     22 C          21.4706   25.4893    2.7110 C.3     1  UNL1        0.1795
     23 O          21.5930   25.9423    4.1357 O.3     1  UNL1       -0.3776
     24 H          22.4170   26.3493    4.4461 H       1  UNL1        0.2106
     25 N          18.9574   22.9019    1.0558 N.3     1  UNL1       -0.1435
     26 C          20.2316   23.5312    1.5359 C.3     1  UNL1        0.1531
     27 C          20.1964   24.8600    2.2310 C.3     1  UNL1        0.0993
     28 N          18.8870   25.5594    2.4460 N.4     1  UNL1        0.2541
     29 C          17.6129   24.9301    1.9660 C.3     1  UNL1        0.1217
     30 C          17.6481   23.6014    1.2709 C.3     1  UNL1        0.1565
     31 H          18.8631   26.4630    2.9187 H       1  UNL1        0.2035
     32 H          17.9966   26.0351    2.5923 H       1  UNL1        0.2035
     33 S          18.9926   21.5732    0.3607 S.O2    1  UNL1        0.0637
     34 O          17.5490   21.3550    0.7047 O.2     1  UNL1       -0.1528
     35 O          20.4363   21.7913    0.0168 O.2     1  UNL1       -0.1528
     36 C          19.0279   20.2444   -0.3344 C.ar    1  UNL1        0.1222
     37 C          18.2402   20.0356   -1.5937 C.ar    1  UNL1        0.0199
     38 C          18.2754   18.7069   -2.2888 C.ar    1  UNL1        0.0014
     39 C          19.0983   17.5869   -1.7246 C.ar    1  UNL1        0.0001
     40 C          19.8860   17.7956   -0.4653 C.ar    1  UNL1        0.0014
     41 C          19.8508   19.1244    0.2298 C.ar    1  UNL1        0.0199
     42 C          23.6428   24.5764    1.6165 C.3     1  UNL1        0.0487
     43 C          25.0224   24.9034    1.1266 C.ar    1  UNL1       -0.0160
     44 C          25.5956   24.1664   -0.0475 C.ar    1  UNL1        0.0256
     45 C          26.9751   24.4934   -0.5374 C.ar    1  UNL1        0.1421
     46 F          27.5483   23.7565   -1.7114 F       1  UNL1       -0.2041
     47 C          27.7813   25.5573    0.1467 C.ar    1  UNL1        0.0592
     48 C          27.2081   26.2942    1.3208 C.ar    1  UNL1        0.1421
     49 F          28.0144   27.3582    2.0049 F       1  UNL1       -0.2041
     50 C          25.8286   25.9673    1.8107 C.ar    1  UNL1        0.0256
@<TRIPOS>UNITY_ATOM_ATTR
28 1
charge 1
@<TRIPOS>BOND
     1    33    34    2
     2    33    35    2
     3    33    25    1
     4    25    26    1
     5    27    26    1
     6    27    28    1
     7    28    29    1
     8    29    30    1
     9    27    22    1
    10    22    23    1
    11    22     1    1
    12     1     2    1
    13     2     3   am
    14     3     4    2
    15     3     6    1
    16     6     7   ar
    17     7     8   ar
    18     8     9   ar
    19     9    10   ar
    20    10    11   ar
    21    10    12    1
    22     8    13    1
    23    13    14    2
    24    13    15   am
    25    15    16    1
    26    16    17    1
    27    17    18    1
    28    15    19    1
    29    19    20    1
    30    20    21    1
    31     1    42    1
    32    42    43    1
    33    43    44   ar
    34    44    45   ar
    35    45    46    1
    36    45    47   ar
    37    47    48   ar
    38    48    49    1
    39    48    50   ar
    40    33    36    1
    41    36    37   ar
    42    37    38   ar
    43    38    39   ar
    44    39    40   ar
    45    40    41   ar
    46    30    25    1
    47    11     6   ar
    48    50    43   ar
    49    41    36   ar
    50    28    31    1
    51    28    32    1
    52    23    24    1
    53     2     5    1
@<TRIPOS>MOLECULE
*****
 50 53 0 0 0
SMALL
GASTEIGER

@<TRIPOS>ATOM
      1 C          25.9681   25.5536    0.2347 C.3     1  UNL1        0.1087
      2 N          25.5967   24.3703   -0.6091 N.am    1  UNL1       -0.2996
      3 C          25.7050   22.9841   -0.0462 C.2     1  UNL1        0.2459
      4 O          26.1847   22.7813    1.3605 O.2     1  UNL1       -0.2701
      5 H          25.2818   24.5035   -1.5324 H       1  UNL1        0.1498
      6 C          25.3336   21.8009   -0.8900 C.ar    1  UNL1        0.0532
      7 C          24.5116   20.6910   -0.3049 C.ar    1  UNL1        0.0090
      8 C          24.1402   19.5077   -1.1487 C.ar    1  UNL1        0.0534
      9 C          24.5909   19.4343   -2.5775 C.ar    1  UNL1        0.0003
     10 C          25.4129   20.5443   -3.1626 C.ar    1  UNL1       -0.0216
     11 C          25.7843   21.7276   -2.3188 C.ar    1  UNL1        0.0003
     12 C          25.8636   20.4710   -4.5914 C.3     1  UNL1        0.0310
     13 C          23.3182   18.3977   -0.5637 C.2     1  UNL1        0.2490
     14 O          23.9716   17.1041   -0.1770 O.2     1  UNL1       -0.2699
     15 N          21.8427   18.5815   -0.3652 N.am    1  UNL1       -0.2761
     16 C          21.0207   17.4715    0.2198 C.3     1  UNL1        0.0937
     17 C          20.5467   16.3484   -0.6541 C.3     1  UNL1        0.0215
     18 C          19.0775   16.1298   -0.8636 C.3     1  UNL1        0.0018
     19 C          21.1893   19.8751   -0.7519 C.3     1  UNL1        0.0937
     20 C          19.7157   19.9178   -1.0286 C.3     1  UNL1        0.0215
     21 C          19.2016   19.6104   -2.4038 C.3     1  UNL1        0.0018
     22 C          25.4289   25.6793    1.6288 C.3     1  UNL1        0.1795
     23 O          26.3076   25.3673    2.8038 O.3     1  UNL1       -0.3776
     24 H          27.2244   25.0841    2.6621 H       1  UNL1        0.2106
     25 N          21.4617   25.6317    1.7250 N.3     1  UNL1       -0.1435
     26 C          22.8795   25.1938    1.5059 C.3     1  UNL1        0.1531
     27 C          24.0110   26.1172    1.8479 C.3     1  UNL1        0.0993
     28 N          23.7247   27.4785    2.4091 N.4     1  UNL1        0.2541
     29 C          22.3069   27.9163    2.6282 C.3     1  UNL1        0.1217
     30 C          21.1754   26.9929    2.2861 C.3     1  UNL1        0.1565
     31 H          24.4941   28.1064    2.6417 H       1  UNL1        0.2035
     32 H          23.5300   28.4042    2.7907 H       1  UNL1        0.2035
     33 S          20.3302   24.7082    1.3829 S.O2    1  UNL1        0.0637
     34 O          21.2728   23.5418    1.4139 O.2     1  UNL1       -0.1528
     35 O          19.3877   25.8747    1.3519 O.2     1  UNL1       -0.1528
     36 C          19.1987   23.7848    1.0408 C.ar    1  UNL1        0.1222
     37 C          18.7027   23.6977   -0.3721 C.ar    1  UNL1        0.0199
     38 C          17.5712   22.7743   -0.7142 C.ar    1  UNL1        0.0014
     39 C          16.9358   21.9380    0.3566 C.ar    1  UNL1        0.0001
     40 C          17.4318   22.0250    1.7695 C.ar    1  UNL1        0.0014
     41 C          18.5633   22.9485    2.1116 C.ar    1  UNL1        0.0199
     42 C          26.8786   26.6110   -0.3155 C.3     1  UNL1        0.0487
     43 C          26.3564   27.9951   -0.5642 C.ar    1  UNL1       -0.0160
     44 C          24.9473   28.1909   -1.0394 C.ar    1  UNL1        0.0256
     45 C          24.4251   29.5749   -1.2881 C.ar    1  UNL1        0.1421
     46 F          23.0159   29.7708   -1.7633 F       1  UNL1       -0.2041
     47 C          25.3122   30.7631   -1.0616 C.ar    1  UNL1        0.0592
     48 C          26.7214   30.5672   -0.5864 C.ar    1  UNL1        0.1421
     49 F          27.6085   31.7555   -0.3599 F       1  UNL1       -0.2041
     50 C          27.2435   29.1832   -0.3377 C.ar    1  UNL1        0.0256
@<TRIPOS>UNITY_ATOM_ATTR
28 1
charge 1
@<TRIPOS>BOND
     1    33    34    2
     2    33    35    2
     3    33    25    1
     4    25    26    1
     5    27    26    1
     6    27    28    1
     7    28    29    1
     8    29    30    1
     9    27    22    1
    10    22    23    1
    11    22     1    1
    12     1     2    1
    13     2     3   am
    14     3     4    2
    15     3     6    1
    16     6     7   ar
    17     7     8   ar
    18     8     9   ar
    19     9    10   ar
    20    10    11   ar
    21    10    12    1
    22     8    13    1
    23    13    14    2
    24    13    15   am
    25    15    16    1
    26    16    17    1
    27    17    18    1
    28    15    19    1
    29    19    20    1
    30    20    21    1
    31     1    42    1
    32    42    43    1
    33    43    44   ar
    34    44    45   ar
    35    45    46    1
    36    45    47   ar
    37    47    48   ar
    38    48    49    1
    39    48    50   ar
    40    33    36    1
    41    36    37   ar
    42    37    38   ar
    43    38    39   ar
    44    39    40   ar
    45    40    41   ar
    46    30    25    1
    47    11     6   ar
    48    50    43   ar
    49    41    36   ar
    50    28    31    1
    51    28    32    1
    52    23    24    1
    53     2     5    1
@<TRIPOS>MOLECULE
*****
 50 53 0 0 0
SMALL
GASTEIGER

@<TRIPOS>ATOM
      1 C          22.5425   19.9085    0.4779 C.3     1  UNL1        0.1087
      2 N          23.2925   21.2048    0.3930 N.am    1  UNL1       -0.2996
      3 C          24.6555   21.2431   -0.2322 C.2     1  UNL1        0.2459
      4 O          25.2684   19.9851   -0.7724 O.2     1  UNL1       -0.2701
      5 H          22.8902   22.0305    0.7476 H       1  UNL1        0.1498
      6 C          25.4055   22.5393   -0.3171 C.ar    1  UNL1        0.0532
      7 C          25.1140   23.6398    0.6596 C.ar    1  UNL1        0.0090
      8 C          25.8641   24.9361    0.5747 C.ar    1  UNL1        0.0534
      9 C          26.9055   25.1319   -0.4869 C.ar    1  UNL1        0.0003
     10 C          27.1970   24.0313   -1.4637 C.ar    1  UNL1       -0.0216
     11 C          26.4470   22.7351   -1.3787 C.ar    1  UNL1        0.0003
     12 C          28.2385   24.2270   -2.5253 C.3     1  UNL1        0.0310
     13 C          25.5726   26.0366    1.5513 C.2     1  UNL1        0.2490
     14 O          26.3629   26.1404    2.8220 O.2     1  UNL1       -0.2699
     15 N          24.4908   27.0333    1.2573 N.am    1  UNL1       -0.2761
     16 C          24.1994   28.1338    2.2340 C.3     1  UNL1        0.0937
     17 C          24.9624   29.4231    2.1607 C.3     1  UNL1        0.0215
     18 C          26.3781   29.4297    1.6648 C.3     1  UNL1        0.0018
     19 C          23.7006   26.9295   -0.0134 C.3     1  UNL1        0.0937
     20 C          23.8765   27.9568   -1.0921 C.3     1  UNL1        0.0215
     21 C          25.2501   28.2881   -1.5954 C.3     1  UNL1        0.0018
     22 C          23.1472   18.7378    1.1946 C.3     1  UNL1        0.1795
     23 O          23.7003   18.9096    2.5783 O.3     1  UNL1       -0.3776
     24 H          23.6669   19.7778    3.0096 H       1  UNL1        0.2106
     25 N          23.0257   14.8065    0.6649 N.3     1  UNL1       -0.1435
     26 C          22.9741   16.1491    1.3319 C.3     1  UNL1        0.1531
     27 C          23.1987   17.3952    0.5276 C.3     1  UNL1        0.0993
     28 N          23.4748   17.2987   -0.9436 N.4     1  UNL1        0.2541
     29 C          23.5264   15.9561   -1.6105 C.3     1  UNL1        0.1217
     30 C          23.3018   14.7100   -0.8062 C.3     1  UNL1        0.1565
     31 H          23.6275   18.1460   -1.4904 H       1  UNL1        0.2035
     32 H          23.6626   17.2331   -1.9440 H       1  UNL1        0.2035
     33 S          22.8011   13.5604    1.4692 S.O2    1  UNL1        0.0637
     34 O          21.3477   13.5833    1.0989 O.2     1  UNL1       -0.1528
     35 O          24.2545   13.5375    1.8395 O.2     1  UNL1       -0.1528
     36 C          22.5765   12.3143    2.2735 C.ar    1  UNL1        0.1222
     37 C          23.7483   11.5435    2.8052 C.ar    1  UNL1        0.0199
     38 C          23.5237   10.2974    3.6095 C.ar    1  UNL1        0.0014
     39 C          22.1274    9.8221    3.8820 C.ar    1  UNL1        0.0001
     40 C          20.9556   10.5929    3.3502 C.ar    1  UNL1        0.0014
     41 C          21.1802   11.8390    2.5460 C.ar    1  UNL1        0.0199
     42 C          21.1878   19.7830   -0.1539 C.3     1  UNL1        0.0487
     43 C          20.0324   20.5726    0.3861 C.ar    1  UNL1       -0.0160
     44 C          19.6130   21.8450   -0.2885 C.ar    1  UNL1        0.0256
     45 C          18.4576   22.6346    0.2514 C.ar    1  UNL1        0.1421
     46 F          18.0382   23.9070   -0.4232 F       1  UNL1       -0.2041
     47 C          17.7215   22.1518    1.4659 C.ar    1  UNL1        0.0592
     48 C          18.1409   20.8794    2.1405 C.ar    1  UNL1        0.1421
     49 F          17.4048   20.3966    3.3551 F       1  UNL1       -0.2041
     50 C          19.2963   20.0898    1.6006 C.ar    1  UNL1        0.0256
@<TRIPOS>UNITY_ATOM_ATTR
28 1
charge 1
@<TRIPOS>BOND
     1    33    34    2
     2    33    35    2
     3    33    25    1
     4    25    26    1
     5    27    26    1
     6    27    28    1
     7    28    29    1
     8    29    30    1
     9    27    22    1
    10    22    23    1
    11    22     1    1
    12     1     2    1
    13     2     3   am
    14     3     4    2
    15     3     6    1
    16     6     7   ar
    17     7     8   ar
    18     8     9   ar
    19     9    10   ar
    20    10    11   ar
    21    10    12    1
    22     8    13    1
    23    13    14    2
    24    13    15   am
    25    15    16    1
    26    16    17    1
    27    17    18    1
    28    15    19    1
    29    19    20    1
    30    20    21    1
    31     1    42    1
    32    42    43    1
    33    43    44   ar
    34    44    45   ar
    35    45    46    1
    36    45    47   ar
    37    47    48   ar
    38    48    49    1
    39    48    50   ar
    40    33    36    1
    41    36    37   ar
    42    37    38   ar
    43    38    39   ar
    44    39    40   ar
    45    40    41   ar
    46    30    25    1
    47    11     6   ar
    48    50    43   ar
    49    41    36   ar
    50    28    31    1
    51    28    32    1
    52    23    24    1
    53     2     5    1
@<TRIPOS>MOLECULE
*****
 50 53 0 0 0
SMALL
GASTEIGER

@<TRIPOS>ATOM
      1 C          22.6411   25.6615    1.8338 C.3     1  UNL1        0.1087
      2 N          22.7865   26.9116    1.0175 N.am    1  UNL1       -0.2996
      3 C          23.2074   28.1922    1.6754 C.2     1  UNL1        0.2459
      4 O          23.4829   28.2228    3.1496 O.2     1  UNL1       -0.2701
      5 H          22.6057   26.8915    0.0500 H       1  UNL1        0.1498
      6 C          23.3528   29.4422    0.8592 C.ar    1  UNL1        0.0532
      7 C          24.6299   29.7108    0.1198 C.ar    1  UNL1        0.0090
      8 C          24.7753   30.9608   -0.6965 C.ar    1  UNL1        0.0534
      9 C          23.6436   31.9423   -0.7733 C.ar    1  UNL1        0.0003
     10 C          22.3664   31.6737   -0.0338 C.ar    1  UNL1       -0.0216
     11 C          22.2210   30.4237    0.7824 C.ar    1  UNL1        0.0003
     12 C          21.2347   32.6552   -0.1106 C.3     1  UNL1        0.0310
     13 C          26.0524   31.2294   -1.4360 C.2     1  UNL1        0.2490
     14 O          27.1425   32.0278   -0.7847 O.2     1  UNL1       -0.2699
     15 N          26.2395   30.6995   -2.8268 N.am    1  UNL1       -0.2761
     16 C          27.5166   30.9681   -3.5662 C.3     1  UNL1        0.0937
     17 C          27.6719   32.2308   -4.3607 C.3     1  UNL1        0.0215
     18 C          27.5055   32.2044   -5.8513 C.3     1  UNL1        0.0018
     19 C          25.1494   29.9011   -3.4781 C.3     1  UNL1        0.0937
     20 C          24.2418   30.5494   -4.4810 C.3     1  UNL1        0.0215
     21 C          23.9620   32.0207   -4.3984 C.3     1  UNL1        0.0018
     22 C          21.4670   25.4983    2.7530 C.3     1  UNL1        0.1795
     23 O          21.5592   25.9611    4.1768 O.3     1  UNL1       -0.3776
     24 H          22.3781   26.3659    4.5032 H       1  UNL1        0.2106
     25 N          18.9832   22.9320    1.0225 N.3     1  UNL1       -0.1435
     26 C          20.2494   23.5579    1.5272 C.3     1  UNL1        0.1531
     27 C          20.2007   24.8724    2.2483 C.3     1  UNL1        0.0993
     28 N          18.8858   25.5608    2.4646 N.4     1  UNL1        0.2541
     29 C          17.6195   24.9349    1.9599 C.3     1  UNL1        0.1217
     30 C          17.6682   23.6204    1.2389 C.3     1  UNL1        0.1565
     31 H          18.8526   26.4546    2.9550 H       1  UNL1        0.2035
     32 H          17.9916   26.0290    2.6118 H       1  UNL1        0.2035
     33 S          19.0319   21.6175    0.3015 S.O2    1  UNL1        0.0637
     34 O          20.5229   21.7357    0.1869 O.2     1  UNL1       -0.1528
     35 O          17.5410   21.4994    0.4161 O.2     1  UNL1       -0.1528
     36 C          19.0806   20.3031   -0.4195 C.ar    1  UNL1        0.1222
     37 C          18.2038   20.0699   -1.6140 C.ar    1  UNL1        0.0199
     38 C          18.2525   18.7555   -2.3350 C.ar    1  UNL1        0.0014
     39 C          19.1781   17.6743   -1.8616 C.ar    1  UNL1        0.0001
     40 C          20.0550   17.9074   -0.6672 C.ar    1  UNL1        0.0014
     41 C          20.0062   19.2219    0.0538 C.ar    1  UNL1        0.0199
     42 C          23.6698   24.5747    1.7309 C.3     1  UNL1        0.0487
     43 C          25.0403   24.8863    1.2066 C.ar    1  UNL1       -0.0160
     44 C          25.8477   25.9881    1.8264 C.ar    1  UNL1        0.0256
     45 C          27.2181   26.2998    1.3021 C.ar    1  UNL1        0.1421
     46 F          28.0255   27.4016    1.9219 F       1  UNL1       -0.2041
     47 C          27.7810   25.5096    0.1582 C.ar    1  UNL1        0.0592
     48 C          26.9736   24.4078   -0.4615 C.ar    1  UNL1        0.1421
     49 F          27.5366   23.6176   -1.6056 F       1  UNL1       -0.2041
     50 C          25.6032   24.0962    0.0627 C.ar    1  UNL1        0.0256
@<TRIPOS>UNITY_ATOM_ATTR
28 1
charge 1
@<TRIPOS>BOND
     1    33    34    2
     2    33    35    2
     3    33    25    1
     4    25    26    1
     5    27    26    1
     6    27    28    1
     7    28    29    1
     8    29    30    1
     9    27    22    1
    10    22    23    1
    11    22     1    1
    12     1     2    1
    13     2     3   am
    14     3     4    2
    15     3     6    1
    16     6     7   ar
    17     7     8   ar
    18     8     9   ar
    19     9    10   ar
    20    10    11   ar
    21    10    12    1
    22     8    13    1
    23    13    14    2
    24    13    15   am
    25    15    16    1
    26    16    17    1
    27    17    18    1
    28    15    19    1
    29    19    20    1
    30    20    21    1
    31     1    42    1
    32    42    43    1
    33    43    44   ar
    34    44    45   ar
    35    45    46    1
    36    45    47   ar
    37    47    48   ar
    38    48    49    1
    39    48    50   ar
    40    33    36    1
    41    36    37   ar
    42    37    38   ar
    43    38    39   ar
    44    39    40   ar
    45    40    41   ar
    46    30    25    1
    47    11     6   ar
    48    50    43   ar
    49    41    36   ar
    50    28    31    1
    51    28    32    1
    52    23    24    1
    53     2     5    1
@<TRIPOS>MOLECULE
*****
 50 53 0 0 0
SMALL
GASTEIGER

@<TRIPOS>ATOM
      1 C          22.8973   27.2661    1.9935 C.3     1  UNL1        0.1087
      2 N          23.6299   26.4093    1.0039 N.am    1  UNL1       -0.2996
      3 C          25.0650   26.0452    1.2448 C.2     1  UNL1        0.2459
      4 O          25.7674   26.5379    2.4752 O.2     1  UNL1       -0.2701
      5 H          23.1689   26.0860    0.1963 H       1  UNL1        0.1498
      6 C          25.7976   25.1885    0.2553 C.ar    1  UNL1        0.0532
      7 C          25.3602   23.7731    0.0200 C.ar    1  UNL1        0.0090
      8 C          26.0928   22.9163   -0.9695 C.ar    1  UNL1        0.0534
      9 C          27.2629   23.4749   -1.7238 C.ar    1  UNL1        0.0003
     10 C          27.7003   24.8903   -1.4885 C.ar    1  UNL1       -0.0216
     11 C          26.9677   25.7471   -0.4990 C.ar    1  UNL1        0.0003
     12 C          28.8704   25.4489   -2.2428 C.3     1  UNL1        0.0310
     13 C          25.6554   21.5009   -1.2047 C.2     1  UNL1        0.2490
     14 O          25.2949   20.6243   -0.0422 O.2     1  UNL1       -0.2699
     15 N          25.5785   20.9621   -2.6026 N.am    1  UNL1       -0.2761
     16 C          25.1410   19.5468   -2.8378 C.3     1  UNL1        0.0937
     17 C          23.6845   19.1929   -2.7821 C.3     1  UNL1        0.0215
     18 C          23.2096   17.8815   -3.3343 C.3     1  UNL1        0.0018
     19 C          25.9389   21.8388   -3.7651 C.3     1  UNL1        0.0937
     20 C          25.8140   21.3163   -5.1656 C.3     1  UNL1        0.0215
     21 C          27.0414   20.9145   -5.9285 C.3     1  UNL1        0.0018
     22 C          21.8133   26.6714    2.8427 C.3     1  UNL1        0.1795
     23 O          21.7704   26.9591    4.3142 O.3     1  UNL1       -0.3776
     24 H          22.4436   27.5298    4.7166 H       1  UNL1        0.2106
     25 N          20.0614   23.4841    1.2545 N.3     1  UNL1       -0.1435
     26 C          21.1025   24.3666    1.8768 C.3     1  UNL1        0.1531
     27 C          20.7721   25.7889    2.2204 C.3     1  UNL1        0.0993
     28 N          19.4006   26.3286    1.9417 N.4     1  UNL1        0.2541
     29 C          18.3595   25.4461    1.3195 C.3     1  UNL1        0.1217
     30 C          18.6900   24.0238    0.9758 C.3     1  UNL1        0.1565
     31 H          19.1759   27.2957    2.1754 H       1  UNL1        0.2035
     32 H          18.4680   26.6956    1.7523 H       1  UNL1        0.2035
     33 S          20.3919   22.0619    0.9108 S.O2    1  UNL1        0.0637
     34 O          21.7899   22.2648    1.4151 O.2     1  UNL1       -0.1528
     35 O          18.9938   21.8589    0.4066 O.2     1  UNL1       -0.1528
     36 C          20.7223   20.6397    0.5672 C.ar    1  UNL1        0.1222
     37 C          19.7541   19.8162   -0.2293 C.ar    1  UNL1        0.0199
     38 C          20.0845   18.3939   -0.5729 C.ar    1  UNL1        0.0014
     39 C          21.3831   17.7952   -0.1201 C.ar    1  UNL1        0.0001
     40 C          22.3513   18.6187    0.6764 C.ar    1  UNL1        0.0014
     41 C          22.0209   20.0409    1.0200 C.ar    1  UNL1        0.0199
     42 C          23.2486   28.7176    2.1338 C.3     1  UNL1        0.0487
     43 C          22.7772   29.7059    1.1085 C.ar    1  UNL1       -0.0160
     44 C          21.6444   30.6357    1.4284 C.ar    1  UNL1        0.0256
     45 C          21.1729   31.6240    0.4032 C.ar    1  UNL1        0.1421
     46 F          20.0401   32.5537    0.7231 F       1  UNL1       -0.2041
     47 C          21.8343   31.6825   -0.9418 C.ar    1  UNL1        0.0592
     48 C          22.9671   30.7528   -1.2617 C.ar    1  UNL1        0.1421
     49 F          23.6285   30.8113   -2.6068 F       1  UNL1       -0.2041
     50 C          23.4386   29.7645   -0.2365 C.ar    1  UNL1        0.0256
@<TRIPOS>UNITY_ATOM_ATTR
28 1
charge 1
@<TRIPOS>BOND
     1    33    34    2
     2    33    35    2
     3    33    25    1
     4    25    26    1
     5    27    26    1
     6    27    28    1
     7    28    29    1
     8    29    30    1
     9    27    22    1
    10    22    23    1
    11    22     1    1
    12     1     2    1
    13     2     3   am
    14     3     4    2
    15     3     6    1
    16     6     7   ar
    17     7     8   ar
    18     8     9   ar
    19     9    10   ar
    20    10    11   ar
    21    10    12    1
    22     8    13    1
    23    13    14    2
    24    13    15   am
    25    15    16    1
    26    16    17    1
    27    17    18    1
    28    15    19    1
    29    19    20    1
    30    20    21    1
    31     1    42    1
    32    42    43    1
    33    43    44   ar
    34    44    45   ar
    35    45    46    1
    36    45    47   ar
    37    47    48   ar
    38    48    49    1
    39    48    50   ar
    40    33    36    1
    41    36    37   ar
    42    37    38   ar
    43    38    39   ar
    44    39    40   ar
    45    40    41   ar
    46    30    25    1
    47    11     6   ar
    48    50    43   ar
    49    41    36   ar
    50    28    31    1
    51    28    32    1
    52    23    24    1
    53     2     5    1
@<TRIPOS>MOLECULE
*****
 50 53 0 0 0
SMALL
GASTEIGER

@<TRIPOS>ATOM
      1 C          26.2231   26.6009    0.7121 C.3     1  UNL1        0.1087
      2 N          25.8076   27.9070    0.1025 N.am    1  UNL1       -0.2996
      3 C          24.9717   27.9211   -1.1429 C.2     1  UNL1        0.2459
      4 O          24.5515   26.6291   -1.7788 O.2     1  UNL1       -0.2701
      5 H          26.0834   28.7549    0.5199 H       1  UNL1        0.1498
      6 C          24.5562   29.2271   -1.7526 C.ar    1  UNL1        0.0532
      7 C          23.9758   30.3071   -0.8885 C.ar    1  UNL1        0.0090
      8 C          23.5602   31.6131   -1.4981 C.ar    1  UNL1        0.0534
      9 C          23.7250   31.8391   -2.9718 C.ar    1  UNL1        0.0003
     10 C          24.3054   30.7590   -3.8358 C.ar    1  UNL1       -0.0216
     11 C          24.7210   29.4530   -3.2262 C.ar    1  UNL1        0.0003
     12 C          24.4703   30.9850   -5.3095 C.3     1  UNL1        0.0310
     13 C          22.9798   32.6931   -0.6340 C.2     1  UNL1        0.2490
     14 O          21.9020   32.3636    0.3559 O.2     1  UNL1       -0.2699
     15 N          23.4771   34.1027   -0.7597 N.am    1  UNL1       -0.2761
     16 C          22.8967   35.1827    0.1044 C.3     1  UNL1        0.0937
     17 C          22.7570   36.5771   -0.4305 C.3     1  UNL1        0.0215
     18 C          23.7217   37.6440   -0.0045 C.3     1  UNL1        0.0018
     19 C          24.5549   34.4322   -1.7496 C.3     1  UNL1        0.0937
     20 C          25.9862   34.4981   -1.3057 C.3     1  UNL1        0.0215
     21 C          26.7298   35.7996   -1.3620 C.3     1  UNL1        0.0018
     22 C          25.4221   26.0079    1.8332 C.3     1  UNL1        0.1795
     23 O          26.0749   25.0751    2.8097 O.3     1  UNL1       -0.3776
     24 H          27.0150   24.8553    2.7162 H       1  UNL1        0.2106
     25 N          21.4700   25.6466    1.8478 N.3     1  UNL1       -0.1435
     26 C          22.9238   25.3067    1.7033 C.3     1  UNL1        0.1531
     27 C          23.9682   26.3478    1.9777 C.3     1  UNL1        0.0993
     28 N          23.5589   27.7288    2.3964 N.4     1  UNL1        0.2541
     29 C          22.1051   28.0686    2.5409 C.3     1  UNL1        0.1217
     30 C          21.0606   27.0275    2.2666 C.3     1  UNL1        0.1565
     31 H          24.2691   28.4367    2.5830 H       1  UNL1        0.2035
     32 H          23.2805   28.6678    2.6812 H       1  UNL1        0.2035
     33 S          20.4255   24.6055    1.5735 S.O2    1  UNL1        0.0637
     34 O          21.4952   23.5588    1.4731 O.2     1  UNL1       -0.1528
     35 O          19.3558   25.6522    1.6739 O.2     1  UNL1       -0.1528
     36 C          19.3811   23.5644    1.2992 C.ar    1  UNL1        0.1222
     37 C          19.7911   22.1723    0.9201 C.ar    1  UNL1        0.0199
     38 C          18.7467   21.1312    0.6458 C.ar    1  UNL1        0.0014
     39 C          17.2921   21.4823    0.7505 C.ar    1  UNL1        0.0001
     40 C          16.8821   22.8744    1.1296 C.ar    1  UNL1        0.0014
     41 C          17.9265   23.9155    1.4039 C.ar    1  UNL1        0.0199
     42 C          27.4397   25.8879    0.2007 C.3     1  UNL1        0.0487
     43 C          27.2923   24.7599   -0.7771 C.ar    1  UNL1       -0.0160
     44 C          28.2349   24.6459   -1.9383 C.ar    1  UNL1        0.0256
     45 C          28.0875   23.5180   -2.9160 C.ar    1  UNL1        0.1421
     46 F          29.0301   23.4040   -4.0773 F       1  UNL1       -0.2041
     47 C          26.9975   22.5040   -2.7325 C.ar    1  UNL1        0.0592
     48 C          26.0549   22.6180   -1.5713 C.ar    1  UNL1        0.1421
     49 F          24.9649   21.6039   -1.3878 F       1  UNL1       -0.2041
     50 C          26.2023   23.7459   -0.5936 C.ar    1  UNL1        0.0256
@<TRIPOS>UNITY_ATOM_ATTR
28 1
charge 1
@<TRIPOS>BOND
     1    33    34    2
     2    33    35    2
     3    33    25    1
     4    25    26    1
     5    27    26    1
     6    27    28    1
     7    28    29    1
     8    29    30    1
     9    27    22    1
    10    22    23    1
    11    22     1    1
    12     1     2    1
    13     2     3   am
    14     3     4    2
    15     3     6    1
    16     6     7   ar
    17     7     8   ar
    18     8     9   ar
    19     9    10   ar
    20    10    11   ar
    21    10    12    1
    22     8    13    1
    23    13    14    2
    24    13    15   am
    25    15    16    1
    26    16    17    1
    27    17    18    1
    28    15    19    1
    29    19    20    1
    30    20    21    1
    31     1    42    1
    32    42    43    1
    33    43    44   ar
    34    44    45   ar
    35    45    46    1
    36    45    47   ar
    37    47    48   ar
    38    48    49    1
    39    48    50   ar
    40    33    36    1
    41    36    37   ar
    42    37    38   ar
    43    38    39   ar
    44    39    40   ar
    45    40    41   ar
    46    30    25    1
    47    11     6   ar
    48    50    43   ar
    49    41    36   ar
    50    28    31    1
    51    28    32    1
    52    23    24    1
    53     2     5    1
@<TRIPOS>MOLECULE
*****
 50 53 0 0 0
SMALL
GASTEIGER

@<TRIPOS>ATOM
      1 C          25.2124   28.4188    1.0540 C.3     1  UNL1        0.1087
      2 N          24.4087   29.6784    0.9215 N.am    1  UNL1       -0.2996
      3 C          23.5455   29.8938   -0.2861 C.2     1  UNL1        0.2459
      4 O          23.4860   28.8495   -1.3614 O.2     1  UNL1       -0.2701
      5 H          24.4478   30.3638    1.6273 H       1  UNL1        0.1498
      6 C          22.7418   31.1533   -0.4186 C.ar    1  UNL1        0.0532
      7 C          23.2121   32.2510   -1.3263 C.ar    1  UNL1        0.0090
      8 C          22.4084   33.5107   -1.4588 C.ar    1  UNL1        0.0534
      9 C          21.1345   33.6725   -0.6836 C.ar    1  UNL1        0.0003
     10 C          20.6642   32.5747    0.2241 C.ar    1  UNL1       -0.0216
     11 C          21.4679   31.3152    0.3566 C.ar    1  UNL1        0.0003
     12 C          19.3903   32.7366    0.9993 C.3     1  UNL1        0.0310
     13 C          22.8786   34.6083   -2.3665 C.2     1  UNL1        0.2490
     14 O          22.4434   34.6329   -3.8017 O.2     1  UNL1       -0.2699
     15 N          23.7842   35.6816   -1.8389 N.am    1  UNL1       -0.2761
     16 C          24.2544   36.7793   -2.7466 C.3     1  UNL1        0.0937
     17 C          25.4591   36.5696   -3.6153 C.3     1  UNL1        0.0215
     18 C          26.7625   37.2217   -3.2603 C.3     1  UNL1        0.0018
     19 C          24.2194   35.6570   -0.4036 C.3     1  UNL1        0.0937
     20 C          25.1235   36.7311    0.1244 C.3     1  UNL1        0.0215
     21 C          26.5335   36.3999    0.5146 C.3     1  UNL1        0.0018
     22 C          24.6344   27.2317    1.7658 C.3     1  UNL1        0.1795
     23 O          25.5407   26.1602    2.2953 O.3     1  UNL1       -0.3776
     24 H          26.5006   26.2349    2.1774 H       1  UNL1        0.2106
     25 N          20.9350   25.8051    1.5945 N.3     1  UNL1       -0.1435
     26 C          22.4193   25.9207    1.4123 C.3     1  UNL1        0.1531
     27 C          23.1499   27.1162    1.9481 C.3     1  UNL1        0.0993
     28 N          22.3962   28.1960    2.6661 N.4     1  UNL1        0.2541
     29 C          20.9118   28.0805    2.8483 C.3     1  UNL1        0.1217
     30 C          20.1812   26.8850    2.3126 C.3     1  UNL1        0.1565
     31 H          22.8930   29.0090    3.0304 H       1  UNL1        0.2035
     32 H          21.8836   28.9304    3.1543 H       1  UNL1        0.2035
     33 S          20.2044   24.6096    1.0588 S.O2    1  UNL1        0.0637
     34 O          21.3564   23.7312    1.4479 O.2     1  UNL1       -0.1528
     35 O          19.0524   25.4880    0.6696 O.2     1  UNL1       -0.1528
     36 C          19.4738   23.4141    0.5230 C.ar    1  UNL1        0.1222
     37 C          19.5698   22.0962    1.2328 C.ar    1  UNL1        0.0199
     38 C          18.8392   20.9008    0.6971 C.ar    1  UNL1        0.0014
     39 C          18.0126   21.0231   -0.5486 C.ar    1  UNL1        0.0001
     40 C          17.9166   22.3410   -1.2585 C.ar    1  UNL1        0.0014
     41 C          18.6472   23.5365   -0.7227 C.ar    1  UNL1        0.0199
     42 C          26.5941   28.3463    0.4747 C.3     1  UNL1        0.0487
     43 C          27.0312   29.3504   -0.5505 C.ar    1  UNL1       -0.0160
     44 C          27.6354   30.6524   -0.1152 C.ar    1  UNL1        0.0256
     45 C          28.0724   31.6564   -1.1403 C.ar    1  UNL1        0.1421
     46 F          28.6766   32.9585   -0.7049 F       1  UNL1       -0.2041
     47 C          27.9052   31.3584   -2.6008 C.ar    1  UNL1        0.0592
     48 C          27.3010   30.0563   -3.0362 C.ar    1  UNL1        0.1421
     49 F          27.1339   29.7583   -4.4968 F       1  UNL1       -0.2041
     50 C          26.8640   29.0523   -2.0111 C.ar    1  UNL1        0.0256
@<TRIPOS>UNITY_ATOM_ATTR
28 1
charge 1
@<TRIPOS>BOND
     1    33    34    2
     2    33    35    2
     3    33    25    1
     4    25    26    1
     5    27    26    1
     6    27    28    1
     7    28    29    1
     8    29    30    1
     9    27    22    1
    10    22    23    1
    11    22     1    1
    12     1     2    1
    13     2     3   am
    14     3     4    2
    15     3     6    1
    16     6     7   ar
    17     7     8   ar
    18     8     9   ar
    19     9    10   ar
    20    10    11   ar
    21    10    12    1
    22     8    13    1
    23    13    14    2
    24    13    15   am
    25    15    16    1
    26    16    17    1
    27    17    18    1
    28    15    19    1
    29    19    20    1
    30    20    21    1
    31     1    42    1
    32    42    43    1
    33    43    44   ar
    34    44    45   ar
    35    45    46    1
    36    45    47   ar
    37    47    48   ar
    38    48    49    1
    39    48    50   ar
    40    33    36    1
    41    36    37   ar
    42    37    38   ar
    43    38    39   ar
    44    39    40   ar
    45    40    41   ar
    46    30    25    1
    47    11     6   ar
    48    50    43   ar
    49    41    36   ar
    50    28    31    1
    51    28    32    1
    52    23    24    1
    53     2     5    1
@<TRIPOS>MOLECULE
*****
 50 53 0 0 0
SMALL
GASTEIGER

@<TRIPOS>ATOM
      1 C          22.9974   27.2899    1.8659 C.3     1  UNL1        0.1087
      2 N          23.6437   26.3578    0.8842 N.am    1  UNL1       -0.2996
      3 C          24.9243   25.6630    1.2410 C.2     1  UNL1        0.2459
      4 O          25.5586   25.9002    2.5794 O.2     1  UNL1       -0.2701
      5 H          23.2273   26.2021    0.0058 H       1  UNL1        0.1498
      6 C          25.5706   24.7310    0.2593 C.ar    1  UNL1        0.0532
      7 C          26.7632   25.1826   -0.5302 C.ar    1  UNL1        0.0090
      8 C          27.4096   24.2506   -1.5119 C.ar    1  UNL1        0.0534
      9 C          26.8632   22.8670   -1.7040 C.ar    1  UNL1        0.0003
     10 C          25.6704   22.4153   -0.9144 C.ar    1  UNL1       -0.0216
     11 C          25.0242   23.3473    0.0673 C.ar    1  UNL1        0.0003
     12 C          25.1240   21.0316   -1.1064 C.3     1  UNL1        0.0310
     13 C          28.6023   24.7023   -2.3015 C.2     1  UNL1        0.2490
     14 O          29.3320   25.9526   -1.9088 O.2     1  UNL1       -0.2699
     15 N          29.0652   23.9037   -3.4839 N.am    1  UNL1       -0.2761
     16 C          30.2579   24.3553   -4.2735 C.3     1  UNL1        0.0937
     17 C          30.0680   25.1641   -5.5224 C.3     1  UNL1        0.0215
     18 C          30.8343   24.8172   -6.7644 C.3     1  UNL1        0.0018
     19 C          28.3354   22.6534   -3.8766 C.3     1  UNL1        0.0937
     20 C          28.9911   21.6564   -4.7855 C.3     1  UNL1        0.0215
     21 C          28.5081   21.4966   -6.1965 C.3     1  UNL1        0.0018
     22 C          21.8938   26.7964    2.7539 C.3     1  UNL1        0.1795
     23 O          21.8469   27.2128    4.1941 O.3     1  UNL1       -0.3776
     24 H          22.5304   27.8012    4.5513 H       1  UNL1        0.2106
     25 N          20.1079   23.5452    1.3430 N.3     1  UNL1       -0.1435
     26 C          21.1647   24.4551    1.8954 C.3     1  UNL1        0.1531
     27 C          20.8369   25.8865    2.2014 C.3     1  UNL1        0.0993
     28 N          19.4522   26.4079    1.9551 N.4     1  UNL1        0.2541
     29 C          18.3954   25.4980    1.4027 C.3     1  UNL1        0.1217
     30 C          18.7232   24.0667    1.0967 C.3     1  UNL1        0.1565
     31 H          19.2293   27.3813    2.1632 H       1  UNL1        0.2035
     32 H          18.5106   26.7625    1.7876 H       1  UNL1        0.2035
     33 S          20.4357   22.1138    1.0369 S.O2    1  UNL1        0.0637
     34 O          19.0112   21.8738    0.6332 O.2     1  UNL1       -0.1528
     35 O          21.8603   22.3538    1.4407 O.2     1  UNL1       -0.1528
     36 C          20.7636   20.6824    0.7309 C.ar    1  UNL1        0.1222
     37 C          19.6623   19.7063    0.4405 C.ar    1  UNL1        0.0199
     38 C          19.9902   18.2749    0.1344 C.ar    1  UNL1        0.0014
     39 C          21.4193   17.8197    0.1188 C.ar    1  UNL1        0.0001
     40 C          22.5206   18.7958    0.4092 C.ar    1  UNL1        0.0014
     41 C          22.1927   20.2271    0.7153 C.ar    1  UNL1        0.0199
     42 C          23.4548   28.7153    1.9597 C.3     1  UNL1        0.0487
     43 C          22.8336   29.7616    1.0826 C.ar    1  UNL1       -0.0160
     44 C          23.4562   30.0977   -0.2401 C.ar    1  UNL1        0.0256
     45 C          22.8350   31.1440   -1.1172 C.ar    1  UNL1        0.1421
     46 F          23.4576   31.4800   -2.4399 F       1  UNL1       -0.2041
     47 C          21.5912   31.8541   -0.6717 C.ar    1  UNL1        0.0592
     48 C          20.9685   31.5180    0.6509 C.ar    1  UNL1        0.1421
     49 F          19.7246   32.2283    1.0964 F       1  UNL1       -0.2041
     50 C          21.5897   30.4718    1.5281 C.ar    1  UNL1        0.0256
@<TRIPOS>UNITY_ATOM_ATTR
28 1
charge 1
@<TRIPOS>BOND
     1    33    34    2
     2    33    35    2
     3    33    25    1
     4    25    26    1
     5    27    26    1
     6    27    28    1
     7    28    29    1
     8    29    30    1
     9    27    22    1
    10    22    23    1
    11    22     1    1
    12     1     2    1
    13     2     3   am
    14     3     4    2
    15     3     6    1
    16     6     7   ar
    17     7     8   ar
    18     8     9   ar
    19     9    10   ar
    20    10    11   ar
    21    10    12    1
    22     8    13    1
    23    13    14    2
    24    13    15   am
    25    15    16    1
    26    16    17    1
    27    17    18    1
    28    15    19    1
    29    19    20    1
    30    20    21    1
    31     1    42    1
    32    42    43    1
    33    43    44   ar
    34    44    45   ar
    35    45    46    1
    36    45    47   ar
    37    47    48   ar
    38    48    49    1
    39    48    50   ar
    40    33    36    1
    41    36    37   ar
    42    37    38   ar
    43    38    39   ar
    44    39    40   ar
    45    40    41   ar
    46    30    25    1
    47    11     6   ar
    48    50    43   ar
    49    41    36   ar
    50    28    31    1
    51    28    32    1
    52    23    24    1
    53     2     5    1
@<TRIPOS>MOLECULE
*****
 39 42 0 0 0
SMALL
GASTEIGER

@<TRIPOS>ATOM
      1 N          21.5755   29.4085    2.1923 N.4     1  UNL1        0.2554
      2 H          20.9358   29.4819    2.9833 H       1  UNL1        0.2037
      3 H          21.6198   28.7261    2.9491 H       1  UNL1        0.2037
      4 C          22.5815   28.2970    2.1419 C.3     1  UNL1        0.0835
      5 C          24.0456   28.6051    2.2487 C.3     1  UNL1        0.0998
      6 C          25.0516   27.4936    2.1984 C.3     1  UNL1        0.1405
      7 O          24.5935   26.0740    2.0413 O.3     1  UNL1       -0.4673
      8 C          23.1294   25.7659    1.9345 C.ar    1  UNL1        0.2258
      9 N          22.6712   24.3461    1.7774 N.ar    1  UNL1       -0.2106
     10 C          21.2071   24.0380    1.6706 C.ar    1  UNL1        0.0977
     11 C          20.2011   25.1496    1.7210 C.ar    1  UNL1       -0.0029
     12 C          20.6593   26.5692    1.8781 C.ar    1  UNL1        0.0031
     13 C          22.1234   26.8773    1.9848 C.ar    1  UNL1        0.0794
     14 C          25.8633   28.7449    2.3586 C.3     1  UNL1        0.0404
     15 C          27.1223   27.9294    2.3494 C.3     1  UNL1        0.0072
     16 C          26.3106   26.6782    2.1892 C.3     1  UNL1        0.0404
     17 C          18.7370   24.8414    1.6142 C.3     1  UNL1        0.0279
     18 C          18.2621   23.7724    0.6751 C.3     1  UNL1        0.0041
     19 C          18.7606   24.5747   -0.4902 C.3     1  UNL1        0.0003
     20 C          17.7636   22.9702    1.8404 C.3     1  UNL1        0.0003
     21 C          17.7872   22.7035   -0.2640 C.3     1  UNL1        0.0003
     22 C          21.5104   30.4121    1.0794 C.3     1  UNL1        0.1337
     23 C          22.2473   31.7131    1.1985 C.3     1  UNL1        0.1839
     24 O          22.2772   32.4408    2.5099 O.3     1  UNL1       -0.3775
     25 H          21.8199   32.0700    3.2808 H       1  UNL1        0.2106
     26 C          22.9544   32.2865    0.0064 C.3     1  UNL1        0.1086
     27 N          23.4524   33.7011    0.0384 N.am    1  UNL1       -0.3030
     28 C          22.5201   34.8318   -0.2808 C.2     1  UNL1        0.2230
     29 O          21.0896   34.5481   -0.6321 O.2     1  UNL1       -0.2751
     30 C          23.0181   36.2464   -0.2488 C.3     1  UNL1        0.0946
     31 H          24.3912   33.8873    0.2690 H       1  UNL1        0.1495
     32 C          23.1635   31.4453   -1.2178 C.3     1  UNL1        0.0486
     33 F          27.3890   27.1856   -1.2449 F       1  UNL1       -0.2042
     34 C          26.3326   28.2506   -1.2381 C.ar    1  UNL1        0.1401
     35 C          24.8900   27.8771   -1.4094 C.ar    1  UNL1        0.0293
     36 C          23.8337   28.9419   -1.4027 C.ar    1  UNL1       -0.0019
     37 C          24.2199   30.3803   -1.2245 C.ar    1  UNL1       -0.0203
     38 C          25.6625   30.7539   -1.0532 C.ar    1  UNL1       -0.0019
     39 C          26.7189   29.6890   -1.0600 C.ar    1  UNL1        0.0293
@<TRIPOS>UNITY_ATOM_ATTR
1 1
charge 1
@<TRIPOS>BOND
     1    33    34    1
     2    34    35   ar
     3    35    36   ar
     4    36    37   ar
     5    37    38   ar
     6    38    39   ar
     7    37    32    1
     8    26    32    1
     9    26    27    1
    10    27    28   am
    11    28    29    2
    12    28    30    1
    13    26    23    1
    14    23    24    1
    15    23    22    1
    16    22     1    1
    17     4     1    1
    18     4     5    1
    19     5     6    1
    20     6     7    1
    21     7     8    1
    22     8     9   ar
    23     9    10   ar
    24    10    11   ar
    25    11    12   ar
    26    12    13   ar
    27    11    17    1
    28    17    18    1
    29    18    19    1
    30    18    20    1
    31    18    21    1
    32     6    14    1
    33    14    15    1
    34    15    16    1
    35    39    34   ar
    36    13     4    1
    37    16     6    1
    38    13     8   ar
    39    27    31    1
    40    24    25    1
    41     1     2    1
    42     1     3    1
@<TRIPOS>MOLECULE
*****
 39 42 0 0 0
SMALL
GASTEIGER

@<TRIPOS>ATOM
      1 N          22.6837   30.4322    1.1797 N.4     1  UNL1        0.2554
      2 H          21.7025   30.4543    1.4574 H       1  UNL1        0.2037
      3 H          22.3012   29.6863    1.7608 H       1  UNL1        0.2037
      4 C          23.5642   29.3027    1.6258 C.3     1  UNL1        0.0835
      5 C          25.0420   29.5156    1.7699 C.3     1  UNL1        0.0998
      6 C          25.9225   28.3862    2.2160 C.3     1  UNL1        0.1405
      7 O          25.3252   27.0439    2.5180 O.3     1  UNL1       -0.4673
      8 C          23.8474   26.8310    2.3740 C.ar    1  UNL1        0.2258
      9 N          23.2501   25.4885    2.6761 N.ar    1  UNL1       -0.2106
     10 C          21.7723   25.2756    2.5321 C.ar    1  UNL1        0.0977
     11 C          20.8918   26.4051    2.0859 C.ar    1  UNL1       -0.0029
     12 C          21.4891   27.7475    1.7839 C.ar    1  UNL1        0.0031
     13 C          22.9669   27.9604    1.9279 C.ar    1  UNL1        0.0794
     14 C          26.8519   29.5459    2.0124 C.3     1  UNL1        0.0404
     15 C          28.0125   28.6873    2.4197 C.3     1  UNL1        0.0072
     16 C          27.0832   27.5276    2.6233 C.3     1  UNL1        0.0404
     17 C          19.4140   26.1922    1.9419 C.3     1  UNL1        0.0279
     18 C          18.8747   24.8129    1.7035 C.3     1  UNL1        0.0041
     19 C          19.0755   24.9895    0.2276 C.3     1  UNL1        0.0003
     20 C          18.6739   24.6363    3.1795 C.3     1  UNL1        0.0003
     21 C          18.3354   23.4337    1.4651 C.3     1  UNL1        0.0003
     22 C          23.2462   31.5292    0.3252 C.3     1  UNL1        0.1337
     23 C          22.8536   31.6311   -1.1190 C.3     1  UNL1        0.1839
     24 O          21.4243   31.8937   -1.4909 O.3     1  UNL1       -0.3775
     25 H          20.7540   31.9975   -0.7976 H       1  UNL1        0.2106
     26 C          23.8902   31.4705   -2.1911 C.3     1  UNL1        0.1086
     27 N          24.7447   32.6374   -2.5891 N.am    1  UNL1       -0.3030
     28 C          26.0064   32.9349   -1.8344 C.2     1  UNL1        0.2230
     29 O          26.4137   32.0656   -0.6818 O.2     1  UNL1       -0.2751
     30 C          26.8609   34.1018   -2.2323 C.3     1  UNL1        0.0946
     31 H          24.4774   33.2079   -3.3455 H       1  UNL1        0.1495
     32 C          24.0724   30.1431   -2.8654 C.3     1  UNL1        0.0486
     33 F          27.3019   25.8440   -0.2029 F       1  UNL1       -0.2042
     34 C          26.4945   26.9188   -0.8685 C.ar    1  UNL1        0.1401
     35 C          27.1785   28.1246   -1.4414 C.ar    1  UNL1        0.0293
     36 C          26.3712   29.1993   -2.1070 C.ar    1  UNL1       -0.0019
     37 C          24.8798   29.0683   -2.1997 C.ar    1  UNL1       -0.0203
     38 C          24.1958   27.8625   -1.6268 C.ar    1  UNL1       -0.0019
     39 C          25.0031   26.7878   -0.9612 C.ar    1  UNL1        0.0293
@<TRIPOS>UNITY_ATOM_ATTR
1 1
charge 1
@<TRIPOS>BOND
     1    33    34    1
     2    34    35   ar
     3    35    36   ar
     4    36    37   ar
     5    37    38   ar
     6    38    39   ar
     7    37    32    1
     8    26    32    1
     9    26    27    1
    10    27    28   am
    11    28    29    2
    12    28    30    1
    13    26    23    1
    14    23    24    1
    15    23    22    1
    16    22     1    1
    17     4     1    1
    18     4     5    1
    19     5     6    1
    20     6     7    1
    21     7     8    1
    22     8     9   ar
    23     9    10   ar
    24    10    11   ar
    25    11    12   ar
    26    12    13   ar
    27    11    17    1
    28    17    18    1
    29    18    19    1
    30    18    20    1
    31    18    21    1
    32     6    14    1
    33    14    15    1
    34    15    16    1
    35    39    34   ar
    36    13     4    1
    37    16     6    1
    38    13     8   ar
    39    27    31    1
    40    24    25    1
    41     1     2    1
    42     1     3    1
@<TRIPOS>MOLECULE
*****
 39 42 0 0 0
SMALL
GASTEIGER

@<TRIPOS>ATOM
      1 N          23.5778   28.3858   -1.3047 N.4     1  UNL1        0.2554
      2 H          22.6166   28.6095   -1.0468 H       1  UNL1        0.2037
      3 H          23.0852   27.8087   -0.6231 H       1  UNL1        0.2037
      4 C          24.2669   27.2081   -0.6815 C.3     1  UNL1        0.0835
      5 C          25.7034   26.9223   -1.0049 C.3     1  UNL1        0.0998
      6 C          26.3925   25.7447   -0.3817 C.3     1  UNL1        0.1405
      7 O          25.6450   24.8529    0.5648 O.3     1  UNL1       -0.4673
      8 C          24.2084   25.1388    0.8882 C.ar    1  UNL1        0.2258
      9 N          23.4609   24.2469    1.8348 N.ar    1  UNL1       -0.2106
     10 C          22.0243   24.5328    2.1581 C.ar    1  UNL1        0.0977
     11 C          21.3353   25.7105    1.5349 C.ar    1  UNL1       -0.0029
     12 C          22.0828   26.6022    0.5884 C.ar    1  UNL1        0.0031
     13 C          23.5194   26.3164    0.2650 C.ar    1  UNL1        0.0794
     14 C          27.4322   26.3874   -1.2512 C.3     1  UNL1        0.0404
     15 C          28.4242   25.3404   -0.8390 C.3     1  UNL1        0.0072
     16 C          27.3845   24.6976    0.0305 C.3     1  UNL1        0.0404
     17 C          19.8987   25.9963    1.8582 C.3     1  UNL1        0.0279
     18 C          18.8629   24.9258    1.6818 C.3     1  UNL1        0.0041
     19 C          18.7146   24.8238    3.1709 C.3     1  UNL1        0.0003
     20 C          19.0112   25.0278    0.1926 C.3     1  UNL1        0.0003
     21 C          17.8271   23.8553    1.5054 C.3     1  UNL1        0.0003
     22 C          24.3022   29.2345   -2.3072 C.3     1  UNL1        0.1337
     23 C          24.1588   30.7272   -2.2694 C.3     1  UNL1        0.1839
     24 O          23.4657   31.4426   -3.3909 O.3     1  UNL1       -0.3775
     25 H          23.1103   30.9400   -4.1405 H       1  UNL1        0.2106
     26 C          24.7084   31.5044   -1.1102 C.3     1  UNL1        0.1086
     27 N          23.8898   32.5926   -0.4811 N.am    1  UNL1       -0.3030
     28 C          22.5907   32.2605    0.1912 C.2     1  UNL1        0.2230
     29 O          22.1102   30.8402    0.2345 O.2     1  UNL1       -0.2751
     30 C          21.7721   33.3487    0.8202 C.3     1  UNL1        0.0946
     31 H          24.2052   33.5248   -0.5095 H       1  UNL1        0.1495
     32 C          26.0767   31.1933   -0.5800 C.3     1  UNL1        0.0486
     33 F          26.7616   27.0597    3.7148 F       1  UNL1       -0.2042
     34 C          26.5903   28.0932    2.6411 C.ar    1  UNL1        0.1401
     35 C          27.7496   28.4624    1.7637 C.ar    1  UNL1        0.0293
     36 C          27.5784   29.4957    0.6901 C.ar    1  UNL1       -0.0019
     37 C          26.2479   30.1599    0.4937 C.ar    1  UNL1       -0.0203
     38 C          25.0886   29.7907    1.3711 C.ar    1  UNL1       -0.0019
     39 C          25.2598   28.7573    2.4447 C.ar    1  UNL1        0.0293
@<TRIPOS>UNITY_ATOM_ATTR
1 1
charge 1
@<TRIPOS>BOND
     1    33    34    1
     2    34    35   ar
     3    35    36   ar
     4    36    37   ar
     5    37    38   ar
     6    38    39   ar
     7    37    32    1
     8    26    32    1
     9    26    27    1
    10    27    28   am
    11    28    29    2
    12    28    30    1
    13    26    23    1
    14    23    24    1
    15    23    22    1
    16    22     1    1
    17     4     1    1
    18     4     5    1
    19     5     6    1
    20     6     7    1
    21     7     8    1
    22     8     9   ar
    23     9    10   ar
    24    10    11   ar
    25    11    12   ar
    26    12    13   ar
    27    11    17    1
    28    17    18    1
    29    18    19    1
    30    18    20    1
    31    18    21    1
    32     6    14    1
    33    14    15    1
    34    15    16    1
    35    39    34   ar
    36    13     4    1
    37    16     6    1
    38    13     8   ar
    39    27    31    1
    40    24    25    1
    41     1     2    1
    42     1     3    1
@<TRIPOS>MOLECULE
*****
 39 42 0 0 0
SMALL
GASTEIGER

@<TRIPOS>ATOM
      1 N          21.0952   19.5068    1.5721 N.4     1  UNL1        0.2554
      2 H          20.7329   19.5423    2.5249 H       1  UNL1        0.2037
      3 H          20.0999   19.3655    1.7449 H       1  UNL1        0.2037
      4 C          20.1643   19.2466    0.4250 C.3     1  UNL1        0.0835
      5 C          19.9392   17.8434   -0.0549 C.3     1  UNL1        0.0998
      6 C          19.0084   17.5832   -1.2019 C.3     1  UNL1        0.1405
      7 O          18.3026   18.7263   -1.8692 O.3     1  UNL1       -0.4673
      8 C          18.5277   20.1295   -1.3894 C.ar    1  UNL1        0.2258
      9 N          17.8219   21.2727   -2.0567 N.ar    1  UNL1       -0.2106
     10 C          18.0470   22.6759   -1.5768 C.ar    1  UNL1        0.0977
     11 C          18.9779   22.9360   -0.4297 C.ar    1  UNL1       -0.0029
     12 C          19.6836   21.7929    0.2375 C.ar    1  UNL1        0.0031
     13 C          19.4585   20.3897   -0.2423 C.ar    1  UNL1        0.0794
     14 C          19.5173   16.2305   -0.8005 C.3     1  UNL1        0.0404
     15 C          18.6900   15.5987   -1.8806 C.3     1  UNL1        0.0072
     16 C          18.1810   16.9514   -2.2820 C.3     1  UNL1        0.0404
     17 C          19.2030   24.3393    0.0501 C.3     1  UNL1        0.0279
     18 C          19.0700   24.6636    1.5087 C.3     1  UNL1        0.0041
     19 C          20.5016   25.1105    1.5398 C.3     1  UNL1        0.0003
     20 C          17.6384   24.2167    1.4775 C.3     1  UNL1        0.0003
     21 C          18.9371   24.9879    2.9671 C.3     1  UNL1        0.0003
     22 C          22.5588   19.7145    1.3180 C.3     1  UNL1        0.1337
     23 C          23.5322   18.6065    1.5914 C.3     1  UNL1        0.1839
     24 O          24.6322   18.8044    2.5919 O.3     1  UNL1       -0.3775
     25 H          24.7140   19.6488    3.0621 H       1  UNL1        0.2106
     26 C          23.4057   17.3006    0.8644 C.3     1  UNL1        0.1086
     27 N          22.6795   16.1539    1.5030 N.am    1  UNL1       -0.3030
     28 C          23.4451   14.9602    1.9918 C.2     1  UNL1        0.2230
     29 O          24.9369   14.9132    1.8420 O.2     1  UNL1       -0.2751
     30 C          22.7190   13.8136    2.6305 C.3     1  UNL1        0.0946
     31 H          21.7004   16.1848    1.6014 H       1  UNL1        0.1495
     32 C          24.0053   17.1414   -0.5013 C.3     1  UNL1        0.0486
     33 F          20.5055   17.4283   -5.3664 F       1  UNL1       -0.2042
     34 C          21.3804   17.3566   -4.1501 C.ar    1  UNL1        0.1401
     35 C          21.8807   16.0289   -3.6633 C.ar    1  UNL1        0.0293
     36 C          22.7556   15.9572   -2.4471 C.ar    1  UNL1       -0.0019
     37 C          23.1303   17.2131   -1.7176 C.ar    1  UNL1       -0.0203
     38 C          22.6301   18.5408   -2.2044 C.ar    1  UNL1       -0.0019
     39 C          21.7551   18.6126   -3.4206 C.ar    1  UNL1        0.0293
@<TRIPOS>UNITY_ATOM_ATTR
1 1
charge 1
@<TRIPOS>BOND
     1    33    34    1
     2    34    35   ar
     3    35    36   ar
     4    36    37   ar
     5    37    38   ar
     6    38    39   ar
     7    37    32    1
     8    26    32    1
     9    26    27    1
    10    27    28   am
    11    28    29    2
    12    28    30    1
    13    26    23    1
    14    23    24    1
    15    23    22    1
    16    22     1    1
    17     4     1    1
    18     4     5    1
    19     5     6    1
    20     6     7    1
    21     7     8    1
    22     8     9   ar
    23     9    10   ar
    24    10    11   ar
    25    11    12   ar
    26    12    13   ar
    27    11    17    1
    28    17    18    1
    29    18    19    1
    30    18    20    1
    31    18    21    1
    32     6    14    1
    33    14    15    1
    34    15    16    1
    35    39    34   ar
    36    13     4    1
    37    16     6    1
    38    13     8   ar
    39    27    31    1
    40    24    25    1
    41     1     2    1
    42     1     3    1
@<TRIPOS>MOLECULE
*****
 39 42 0 0 0
SMALL
GASTEIGER

@<TRIPOS>ATOM
      1 N          24.2769   20.7116    0.3140 N.4     1  UNL1        0.2554
      2 H          24.7764   20.4747    1.1713 H       1  UNL1        0.2037
      3 H          25.2846   20.8579    0.3743 H       1  UNL1        0.2037
      4 C          25.0244   21.2752   -0.8581 C.3     1  UNL1        0.0835
      5 C          25.0848   20.5105   -2.1471 C.3     1  UNL1        0.0998
      6 C          25.8321   21.0741   -3.3192 C.3     1  UNL1        0.1405
      7 O          26.5191   22.4024   -3.2022 O.3     1  UNL1       -0.4673
      8 C          26.4587   23.1671   -1.9131 C.ar    1  UNL1        0.2258
      9 N          27.1457   24.4954   -1.7962 N.ar    1  UNL1       -0.2106
     10 C          27.0853   25.2601   -0.5071 C.ar    1  UNL1        0.0977
     11 C          26.3379   24.6964    0.6649 C.ar    1  UNL1       -0.0029
     12 C          25.6509   23.3682    0.5480 C.ar    1  UNL1        0.0031
     13 C          25.7113   22.6035   -0.7411 C.ar    1  UNL1        0.0794
     14 C          25.2892   19.7610   -3.7999 C.3     1  UNL1        0.0404
     15 C          25.9176   19.9927   -5.1422 C.3     1  UNL1        0.0072
     16 C          26.4604   21.3058   -4.6614 C.3     1  UNL1        0.0404
     17 C          26.2775   25.4611    1.9540 C.3     1  UNL1        0.0279
     18 C          25.6798   26.8367    1.9827 C.3     1  UNL1        0.0041
     19 C          24.3346   26.2590    1.6561 C.3     1  UNL1        0.0003
     20 C          27.0251   27.4143    2.3094 C.3     1  UNL1        0.0003
     21 C          25.0821   28.2121    2.0115 C.3     1  UNL1        0.0003
     22 C          22.7951   20.4963    0.2255 C.3     1  UNL1        0.1337
     23 C          21.8628   21.3596    1.0227 C.3     1  UNL1        0.1839
     24 O          22.2973   22.7266    1.4616 O.3     1  UNL1       -0.3775
     25 H          23.1811   23.0523    1.2299 H       1  UNL1        0.2106
     26 C          20.4961   20.8559    1.3810 C.3     1  UNL1        0.1086
     27 N          19.5010   21.7779    2.0210 N.am    1  UNL1       -0.3030
     28 C          19.0383   23.0046    1.2923 C.2     1  UNL1        0.2230
     29 O          19.5707   23.3094   -0.0766 O.2     1  UNL1       -0.2751
     30 C          18.0432   23.9266    1.9324 C.3     1  UNL1        0.0946
     31 H          19.1516   21.5779    2.9195 H       1  UNL1        0.1495
     32 C          20.1246   19.4303    1.0992 C.3     1  UNL1        0.0486
     33 F          17.3734   18.0064   -4.0393 F       1  UNL1       -0.2042
     34 C          18.0612   18.3623   -2.7546 C.ar    1  UNL1        0.1401
     35 C          17.8582   19.7181   -2.1458 C.ar    1  UNL1        0.0293
     36 C          18.5459   20.0741   -0.8612 C.ar    1  UNL1       -0.0019
     37 C          19.4367   19.0743   -0.1854 C.ar    1  UNL1       -0.0203
     38 C          19.6398   17.7185   -0.7942 C.ar    1  UNL1       -0.0019
     39 C          18.9521   17.3625   -2.0788 C.ar    1  UNL1        0.0293
@<TRIPOS>UNITY_ATOM_ATTR
1 1
charge 1
@<TRIPOS>BOND
     1    33    34    1
     2    34    35   ar
     3    35    36   ar
     4    36    37   ar
     5    37    38   ar
     6    38    39   ar
     7    37    32    1
     8    26    32    1
     9    26    27    1
    10    27    28   am
    11    28    29    2
    12    28    30    1
    13    26    23    1
    14    23    24    1
    15    23    22    1
    16    22     1    1
    17     4     1    1
    18     4     5    1
    19     5     6    1
    20     6     7    1
    21     7     8    1
    22     8     9   ar
    23     9    10   ar
    24    10    11   ar
    25    11    12   ar
    26    12    13   ar
    27    11    17    1
    28    17    18    1
    29    18    19    1
    30    18    20    1
    31    18    21    1
    32     6    14    1
    33    14    15    1
    34    15    16    1
    35    39    34   ar
    36    13     4    1
    37    16     6    1
    38    13     8   ar
    39    27    31    1
    40    24    25    1
    41     1     2    1
    42     1     3    1
@<TRIPOS>MOLECULE
*****
 39 42 0 0 0
SMALL
GASTEIGER

@<TRIPOS>ATOM
      1 N          21.2576   15.9226    0.7343 N.4     1  UNL1        0.2554
      2 H          22.1964   15.6304    0.4630 H       1  UNL1        0.2037
      3 H          21.3817   15.1868    0.0390 H       1  UNL1        0.2037
      4 C          20.0594   15.2701    0.1107 C.3     1  UNL1        0.0835
      5 C          19.2943   15.9804   -0.9663 C.3     1  UNL1        0.0998
      6 C          18.0962   15.3280   -1.5900 C.3     1  UNL1        0.1405
      7 O          17.6633   13.9653   -1.1366 O.3     1  UNL1       -0.4673
      8 C          18.4285   13.2550   -0.0595 C.ar    1  UNL1        0.2258
      9 N          17.9956   11.8923    0.3939 N.ar    1  UNL1       -0.2106
     10 C          18.7607   11.1820    1.4709 C.ar    1  UNL1        0.0977
     11 C          19.9589   11.8345    2.0945 C.ar    1  UNL1       -0.0029
     12 C          20.3918   13.1972    1.6411 C.ar    1  UNL1        0.0031
     13 C          19.6266   13.9074    0.5641 C.ar    1  UNL1        0.0794
     14 C          18.2210   16.6530   -2.2821 C.3     1  UNL1        0.0404
     15 C          17.0140   16.3326   -3.1132 C.3     1  UNL1        0.0072
     16 C          16.8892   15.0076   -2.4211 C.3     1  UNL1        0.0404
     17 C          20.7241   11.1242    3.1715 C.3     1  UNL1        0.0279
     18 C          22.1470   10.7132    2.9340 C.3     1  UNL1        0.0041
     19 C          21.6905    9.7342    1.8933 C.3     1  UNL1        0.0003
     20 C          22.6035   11.6921    3.9749 C.3     1  UNL1        0.0003
     21 C          23.5699   10.3021    2.6965 C.3     1  UNL1        0.0003
     22 C          21.0750   17.0048    1.7568 C.3     1  UNL1        0.1337
     23 C          21.7075   18.3488    1.5476 C.3     1  UNL1        0.1839
     24 O          22.3916   19.0415    2.6888 O.3     1  UNL1       -0.3775
     25 H          22.4251   18.6203    3.5619 H       1  UNL1        0.2106
     26 C          21.6558   19.0000    0.1974 C.3     1  UNL1        0.1086
     27 N          22.9252   19.4246   -0.4795 N.am    1  UNL1       -0.3030
     28 C          23.5456   20.7492   -0.1472 C.2     1  UNL1        0.2230
     29 O          22.8966   21.6493    0.8622 O.2     1  UNL1       -0.2751
     30 C          24.8150   21.1739   -0.8242 C.3     1  UNL1        0.0946
     31 H          23.3512   18.8339   -1.1420 H       1  UNL1        0.1495
     32 C          20.3347   19.2266   -0.4758 C.3     1  UNL1        0.0486
     33 F          16.5911   23.4305    1.6009 F       1  UNL1       -0.2042
     34 C          17.5270   22.3795    1.0817 C.ar    1  UNL1        0.1401
     35 C          18.0354   21.3081    2.0001 C.ar    1  UNL1        0.0293
     36 C          18.9713   20.2571    1.4810 C.ar    1  UNL1       -0.0019
     37 C          19.3988   20.2776    0.0434 C.ar    1  UNL1       -0.0203
     38 C          18.8904   21.3490   -0.8751 C.ar    1  UNL1       -0.0019
     39 C          17.9545   22.4000   -0.3559 C.ar    1  UNL1        0.0293
@<TRIPOS>UNITY_ATOM_ATTR
1 1
charge 1
@<TRIPOS>BOND
     1    33    34    1
     2    34    35   ar
     3    35    36   ar
     4    36    37   ar
     5    37    38   ar
     6    38    39   ar
     7    37    32    1
     8    26    32    1
     9    26    27    1
    10    27    28   am
    11    28    29    2
    12    28    30    1
    13    26    23    1
    14    23    24    1
    15    23    22    1
    16    22     1    1
    17     4     1    1
    18     4     5    1
    19     5     6    1
    20     6     7    1
    21     7     8    1
    22     8     9   ar
    23     9    10   ar
    24    10    11   ar
    25    11    12   ar
    26    12    13   ar
    27    11    17    1
    28    17    18    1
    29    18    19    1
    30    18    20    1
    31    18    21    1
    32     6    14    1
    33    14    15    1
    34    15    16    1
    35    39    34   ar
    36    13     4    1
    37    16     6    1
    38    13     8   ar
    39    27    31    1
    40    24    25    1
    41     1     2    1
    42     1     3    1
@<TRIPOS>MOLECULE
*****
 39 42 0 0 0
SMALL
GASTEIGER

@<TRIPOS>ATOM
      1 N          23.6910   30.3568   -2.9834 N.4     1  UNL1        0.2554
      2 H          22.8900   30.4334   -3.6102 H       1  UNL1        0.2037
      3 H          22.7441   30.3481   -2.6043 H       1  UNL1        0.2037
      4 C          23.4764   30.2313   -1.5041 C.3     1  UNL1        0.0835
      5 C          23.4966   28.8790   -0.8553 C.3     1  UNL1        0.0998
      6 C          23.2820   28.7536    0.6239 C.3     1  UNL1        0.1405
      7 O          23.0472   29.9804    1.4544 O.3     1  UNL1       -0.4673
      8 C          23.0270   31.3327    0.8056 C.ar    1  UNL1        0.2258
      9 N          22.7921   32.5596    1.6362 N.ar    1  UNL1       -0.2106
     10 C          22.7719   33.9118    0.9874 C.ar    1  UNL1        0.0977
     11 C          22.9865   34.0373   -0.4919 C.ar    1  UNL1       -0.0029
     12 C          23.2214   32.8105   -1.3224 C.ar    1  UNL1        0.0031
     13 C          23.2416   31.4582   -0.6736 C.ar    1  UNL1        0.0794
     14 C          23.4798   27.3477    0.1397 C.3     1  UNL1        0.0404
     15 C          23.3106   26.8411    1.5414 C.3     1  UNL1        0.0072
     16 C          23.1128   28.2470    2.0257 C.3     1  UNL1        0.0404
     17 C          22.9663   35.3896   -1.1407 C.3     1  UNL1        0.0279
     18 C          23.7508   36.5199   -0.5431 C.3     1  UNL1        0.0041
     19 C          22.4832   37.2991   -0.3532 C.3     1  UNL1        0.0003
     20 C          25.0184   35.7406   -0.7329 C.3     1  UNL1        0.0003
     21 C          24.5351   37.6502    0.0545 C.3     1  UNL1        0.0003
     22 C          25.0835   30.3694   -3.5408 C.3     1  UNL1        0.1337
     23 C          25.9658   31.5638   -3.3279 C.3     1  UNL1        0.1839
     24 O          25.6459   32.8629   -4.0060 O.3     1  UNL1       -0.3775
     25 H          24.8685   32.9308   -4.5821 H       1  UNL1        0.2106
     26 C          27.1679   31.4589   -2.4369 C.3     1  UNL1        0.1086
     27 N          28.5433   31.4212   -3.0343 N.am    1  UNL1       -0.3030
     28 C          29.1820   32.6859   -3.5266 C.2     1  UNL1        0.2230
     29 O          28.4454   33.9884   -3.4215 O.2     1  UNL1       -0.2751
     30 C          30.5574   32.6483   -4.1240 C.3     1  UNL1        0.0946
     31 H          29.0267   30.5664   -3.1033 H       1  UNL1        0.1495
     32 C          26.9946   31.3916   -0.9485 C.3     1  UNL1        0.0486
     33 F          26.9680   26.0746    1.8317 F       1  UNL1       -0.2042
     34 C          26.9746   27.4039    1.1366 C.ar    1  UNL1        0.1401
     35 C          27.0996   27.4688   -0.3567 C.ar    1  UNL1        0.0293
     36 C          27.1063   28.7980   -1.0518 C.ar    1  UNL1       -0.0019
     37 C          26.9880   30.0623   -0.2534 C.ar    1  UNL1       -0.0203
     38 C          26.8630   29.9975    1.2399 C.ar    1  UNL1       -0.0019
     39 C          26.8563   28.6683    1.9350 C.ar    1  UNL1        0.0293
@<TRIPOS>UNITY_ATOM_ATTR
1 1
charge 1
@<TRIPOS>BOND
     1    33    34    1
     2    34    35   ar
     3    35    36   ar
     4    36    37   ar
     5    37    38   ar
     6    38    39   ar
     7    37    32    1
     8    26    32    1
     9    26    27    1
    10    27    28   am
    11    28    29    2
    12    28    30    1
    13    26    23    1
    14    23    24    1
    15    23    22    1
    16    22     1    1
    17     4     1    1
    18     4     5    1
    19     5     6    1
    20     6     7    1
    21     7     8    1
    22     8     9   ar
    23     9    10   ar
    24    10    11   ar
    25    11    12   ar
    26    12    13   ar
    27    11    17    1
    28    17    18    1
    29    18    19    1
    30    18    20    1
    31    18    21    1
    32     6    14    1
    33    14    15    1
    34    15    16    1
    35    39    34   ar
    36    13     4    1
    37    16     6    1
    38    13     8   ar
    39    27    31    1
    40    24    25    1
    41     1     2    1
    42     1     3    1
@<TRIPOS>MOLECULE
*****
 39 42 0 0 0
SMALL
GASTEIGER

@<TRIPOS>ATOM
      1 N          19.3402   15.7275    1.0402 N.4     1  UNL1        0.2554
      2 H          18.7234   16.3725    1.5341 H       1  UNL1        0.2037
      3 H          18.3840   15.4499    1.2620 H       1  UNL1        0.2037
      4 C          18.8411   14.3707    0.6400 C.3     1  UNL1        0.0835
      5 C          19.1280   13.1804    1.5066 C.3     1  UNL1        0.0998
      6 C          18.6289   11.8236    1.1065 C.3     1  UNL1        0.1405
      7 O          17.8430   11.6572   -0.1602 O.3     1  UNL1       -0.4673
      8 C          17.5561   12.8475   -1.0268 C.ar    1  UNL1        0.2258
      9 N          16.7701   12.6810   -2.2936 N.ar    1  UNL1       -0.2106
     10 C          16.4832   13.8713   -3.1601 C.ar    1  UNL1        0.0977
     11 C          16.9823   15.2281   -2.7599 C.ar    1  UNL1       -0.0029
     12 C          17.7683   15.3945   -1.4932 C.ar    1  UNL1        0.0031
     13 C          18.0551   14.2042   -0.6267 C.ar    1  UNL1        0.0794
     14 C          19.3564   11.6038    2.3997 C.3     1  UNL1        0.0404
     15 C          19.0346   10.1403    2.3320 C.3     1  UNL1        0.0072
     16 C          18.3071   10.3601    1.0387 C.3     1  UNL1        0.0404
     17 C          16.6955   16.4183   -3.6265 C.3     1  UNL1        0.0279
     18 C          17.7829   17.4071   -3.9265 C.3     1  UNL1        0.0041
     19 C          17.0564   18.4484   -3.1278 C.3     1  UNL1        0.0003
     20 C          18.5093   16.3658   -4.7253 C.3     1  UNL1        0.0003
     21 C          18.8702   18.3959   -4.2265 C.3     1  UNL1        0.0003
     22 C          20.7462   16.1356    0.7142 C.3     1  UNL1        0.1337
     23 C          21.1993   17.5412    0.9770 C.3     1  UNL1        0.1839
     24 O          21.7427   17.9145    2.3244 O.3     1  UNL1       -0.3775
     25 H          21.8011   17.2470    3.0257 H       1  UNL1        0.2106
     26 C          21.1090   18.5735   -0.1075 C.3     1  UNL1        0.1086
     27 N          22.3565   19.2170   -0.6363 N.am    1  UNL1       -0.3030
     28 C          23.0066   20.3324    0.1274 C.2     1  UNL1        0.2230
     29 O          22.4092   20.8043    1.4199 O.2     1  UNL1       -0.2751
     30 C          24.2541   20.9759   -0.4013 C.3     1  UNL1        0.0946
     31 H          22.7486   18.9073   -1.4845 H       1  UNL1        0.1495
     32 C          19.7711   18.9622   -0.6633 C.3     1  UNL1        0.0486
     33 F          16.7690   23.5875    1.7018 F       1  UNL1       -0.2042
     34 C          17.5195   22.4311    1.1105 C.ar    1  UNL1        0.1401
     35 C          17.6301   22.2916   -0.3789 C.ar    1  UNL1        0.0293
     36 C          18.3806   21.1353   -0.9702 C.ar    1  UNL1       -0.0019
     37 C          19.0205   20.1186   -0.0721 C.ar    1  UNL1       -0.0203
     38 C          18.9100   20.2581    1.4173 C.ar    1  UNL1       -0.0019
     39 C          18.1595   21.4144    2.0086 C.ar    1  UNL1        0.0293
@<TRIPOS>UNITY_ATOM_ATTR
1 1
charge 1
@<TRIPOS>BOND
     1    33    34    1
     2    34    35   ar
     3    35    36   ar
     4    36    37   ar
     5    37    38   ar
     6    38    39   ar
     7    37    32    1
     8    26    32    1
     9    26    27    1
    10    27    28   am
    11    28    29    2
    12    28    30    1
    13    26    23    1
    14    23    24    1
    15    23    22    1
    16    22     1    1
    17     4     1    1
    18     4     5    1
    19     5     6    1
    20     6     7    1
    21     7     8    1
    22     8     9   ar
    23     9    10   ar
    24    10    11   ar
    25    11    12   ar
    26    12    13   ar
    27    11    17    1
    28    17    18    1
    29    18    19    1
    30    18    20    1
    31    18    21    1
    32     6    14    1
    33    14    15    1
    34    15    16    1
    35    39    34   ar
    36    13     4    1
    37    16     6    1
    38    13     8   ar
    39    27    31    1
    40    24    25    1
    41     1     2    1
    42     1     3    1
@<TRIPOS>MOLECULE
*****
 39 42 0 0 0
SMALL
GASTEIGER

@<TRIPOS>ATOM
      1 N          25.5934   23.8276    1.4098 N.4     1  UNL1        0.2554
      2 H          25.9782   23.3937    2.2488 H       1  UNL1        0.2037
      3 H          26.3770   23.1788    1.3349 H       1  UNL1        0.2037
      4 C          26.1799   23.5117    0.0657 C.3     1  UNL1        0.0835
      5 C          27.2801   24.3653   -0.4919 C.3     1  UNL1        0.0998
      6 C          27.8665   24.0494   -1.8358 C.3     1  UNL1        0.1405
      7 O          27.3527   22.8800   -2.6222 O.3     1  UNL1       -0.4673
      8 C          26.2525   22.0264   -2.0646 C.ar    1  UNL1        0.2258
      9 N          25.7387   20.8570   -2.8511 N.ar    1  UNL1       -0.2106
     10 C          24.6385   20.0034   -2.2935 C.ar    1  UNL1        0.0977
     11 C          24.0520   20.3193   -0.9494 C.ar    1  UNL1       -0.0029
     12 C          24.5658   21.4887   -0.1630 C.ar    1  UNL1        0.0031
     13 C          25.6661   22.3423   -0.7206 C.ar    1  UNL1        0.0794
     14 C          28.6149   25.2594   -1.3604 C.3     1  UNL1        0.0404
     15 C          29.4226   25.2566   -2.6244 C.3     1  UNL1        0.0072
     16 C          28.6742   24.0466   -3.0999 C.3     1  UNL1        0.0404
     17 C          22.9518   19.4657   -0.3918 C.3     1  UNL1        0.0279
     18 C          21.5208   19.8844   -0.5569 C.3     1  UNL1        0.0041
     19 C          21.6165   20.7047    0.6953 C.3     1  UNL1        0.0003
     20 C          21.4252   19.0641   -1.8091 C.3     1  UNL1        0.0003
     21 C          20.0900   20.3031   -0.7218 C.3     1  UNL1        0.0003
     22 C          24.4412   24.7816    1.5199 C.3     1  UNL1        0.1337
     23 C          24.6864   26.2140    1.8918 C.3     1  UNL1        0.1839
     24 O          25.9416   26.5958    2.6189 O.3     1  UNL1       -0.3775
     25 H          26.5947   25.9164    2.8486 H       1  UNL1        0.2106
     26 C          23.6763   27.2645    1.5367 C.3     1  UNL1        0.1086
     27 N          22.2581   26.8731    1.2445 N.am    1  UNL1       -0.3030
     28 C          21.2820   26.6958    2.3695 C.2     1  UNL1        0.2230
     29 O          21.7241   26.9100    3.7868 O.2     1  UNL1       -0.2751
     30 C          19.8637   26.3043    2.0773 C.3     1  UNL1        0.0946
     31 H          21.9679   26.7325    0.3143 H       1  UNL1        0.1495
     32 C          24.0845   28.7065    1.4737 C.3     1  UNL1        0.0486
     33 F          20.5241   32.7176   -1.2161 F       1  UNL1       -0.2042
     34 C          21.4142   31.7148   -0.5436 C.ar    1  UNL1        0.1401
     35 C          22.6000   31.1565   -1.2729 C.ar    1  UNL1        0.0293
     36 C          23.4901   30.1537   -0.6005 C.ar    1  UNL1       -0.0019
     37 C          23.1944   29.7093    0.8012 C.ar    1  UNL1       -0.0203
     38 C          22.0085   30.2677    1.5306 C.ar    1  UNL1       -0.0019
     39 C          21.1184   31.2705    0.8582 C.ar    1  UNL1        0.0293
@<TRIPOS>UNITY_ATOM_ATTR
1 1
charge 1
@<TRIPOS>BOND
     1    33    34    1
     2    34    35   ar
     3    35    36   ar
     4    36    37   ar
     5    37    38   ar
     6    38    39   ar
     7    37    32    1
     8    26    32    1
     9    26    27    1
    10    27    28   am
    11    28    29    2
    12    28    30    1
    13    26    23    1
    14    23    24    1
    15    23    22    1
    16    22     1    1
    17     4     1    1
    18     4     5    1
    19     5     6    1
    20     6     7    1
    21     7     8    1
    22     8     9   ar
    23     9    10   ar
    24    10    11   ar
    25    11    12   ar
    26    12    13   ar
    27    11    17    1
    28    17    18    1
    29    18    19    1
    30    18    20    1
    31    18    21    1
    32     6    14    1
    33    14    15    1
    34    15    16    1
    35    39    34   ar
    36    13     4    1
    37    16     6    1
    38    13     8   ar
    39    27    31    1
    40    24    25    1
    41     1     2    1
    42     1     3    1
@<TRIPOS>MOLECULE
*****
 52 55 0 0 0
SMALL
GASTEIGER

@<TRIPOS>ATOM
      1 N          24.1374   26.6107    1.1222 N.am    1  UNL1       -0.3017
      2 C          23.6644   26.9558   -0.2588 C.2     1  UNL1        0.2406
      3 O          23.3292   26.5387   -0.8497 O.2     1  UNL1       -0.2733
      4 H          24.5313   27.3071    1.6960 H       1  UNL1        0.1495
      5 C          24.0102   25.2047    1.6290 C.3     1  UNL1        0.1086
      6 C          22.7037   24.7241    2.1877 C.3     1  UNL1        0.1839
      7 O          22.1888   23.3625    1.8259 O.3     1  UNL1       -0.3775
      8 H          21.3439   23.0517    2.1871 H       1  UNL1        0.2106
      9 C          21.9121   25.6051    3.1081 C.3     1  UNL1        0.1339
     10 N          20.5753   26.1314    2.6769 N.4     1  UNL1        0.2597
     11 H          20.5097   27.0362    2.2107 H       1  UNL1        0.2040
     12 H          21.4187   26.6784    2.5039 H       1  UNL1        0.2040
     13 C          19.3350   25.3271    2.9314 C.3     1  UNL1        0.1299
     14 C          18.6535   23.7651   -0.6528 C.ar    1  UNL1        0.1386
     15 C          19.2151   24.6397    0.4287 C.ar    1  UNL1        0.0383
     16 C          18.7733   24.4524    1.8499 C.ar    1  UNL1        0.0356
     17 C          17.7700   23.3905    2.1896 C.ar    1  UNL1        0.0016
     18 C          17.2083   22.5159    1.1081 C.ar    1  UNL1        0.0030
     19 C          17.6501   22.7032   -0.3130 C.ar    1  UNL1        0.0369
     20 O          19.0953   23.9525   -2.0739 O.3     1  UNL1       -0.4714
     21 C          18.1098   23.7910   -3.1931 C.3     1  UNL1        0.2525
     22 C          25.1896   24.2793    1.5772 C.3     1  UNL1        0.0486
     23 C          25.5382   23.5796    0.2970 C.ar    1  UNL1       -0.0204
     24 C          26.3599   24.2828   -0.7423 C.ar    1  UNL1       -0.0042
     25 C          26.7085   23.5831   -2.0225 C.ar    1  UNL1       -0.0003
     26 C          26.2354   22.1802   -2.2634 C.ar    1  UNL1       -0.0000
     27 C          25.4137   21.4769   -1.2240 C.ar    1  UNL1       -0.0003
     28 C          25.0651   22.1767    0.0562 C.ar    1  UNL1       -0.0042
     29 C          23.7915   28.3619   -0.7656 C.3     1  UNL1        0.1521
     30 N          23.0102   29.4663   -0.1176 N.am    1  UNL1       -0.2716
     31 C          22.3625   29.4122    1.2344 C.3     1  UNL1        0.0960
     32 C          21.6914   30.7312    1.4798 C.3     1  UNL1        0.0484
     33 C          21.9244   31.6003    0.2796 C.3     1  UNL1        0.1273
     34 C          22.7395   30.8185   -0.7076 C.2     1  UNL1        0.2418
     35 O          23.2025   31.3038   -2.0493 O.2     1  UNL1       -0.2732
     36 N          21.9899   32.6799   -0.7596 N.am    1  UNL1       -0.2999
     37 C          23.0776   33.7112   -0.7020 C.2     1  UNL1        0.2232
     38 O          23.7965   33.7772   -0.0332 O.2     1  UNL1       -0.2751
     39 C          23.1432   34.7909   -1.7412 C.3     1  UNL1        0.0946
     40 H          21.3190   32.7117   -1.4794 H       1  UNL1        0.1498
     41 C          21.1231   32.6077    1.0496 C.3     1  UNL1        0.0249
     42 C          21.3013   32.9353    1.9603 C.3     1  UNL1        0.0021
     43 C          19.9047   33.2274    0.4319 C.3     1  UNL1        0.0021
     44 C          18.6153   33.2706    1.1970 C.3     1  UNL1        0.0001
     45 C          24.6999   28.6636   -1.9205 C.3     1  UNL1        0.0339
     46 C          26.1267   29.0532   -1.6705 C.3     1  UNL1        0.0286
     47 C          26.7194   28.8920   -0.3020 C.ar    1  UNL1       -0.0221
     48 C          27.1835   27.5425    0.1602 C.ar    1  UNL1       -0.0043
     49 C          27.7762   27.3814    1.5286 C.ar    1  UNL1       -0.0003
     50 C          27.9049   28.5697    2.4349 C.ar    1  UNL1       -0.0000
     51 C          27.4409   29.9192    1.9728 C.ar    1  UNL1       -0.0003
     52 C          26.8481   30.0803    0.6043 C.ar    1  UNL1       -0.0043
@<TRIPOS>UNITY_ATOM_ATTR
10 1
charge 1
@<TRIPOS>BOND
     1    20    21    1
     2    20    14    1
     3    14    15   ar
     4    15    16   ar
     5    16    17   ar
     6    17    18   ar
     7    18    19   ar
     8    16    13    1
     9    13    10    1
    10    10     9    1
    11     9     6    1
    12     6     7    1
    13     6     5    1
    14     5     1    1
    15     1     2   am
    16     2     3    2
    17     2    29    1
    18    29    30    1
    19    30    31    1
    20    31    32    1
    21    32    33    1
    22    33    36    1
    23    36    37   am
    24    37    38    2
    25    37    39    1
    26    33    41    1
    27    41    43    1
    28    43    44    1
    29    41    42    1
    30    33    34    1
    31    34    35    2
    32    29    45    1
    33    45    46    1
    34    46    47    1
    35    47    48   ar
    36    48    49   ar
    37    49    50   ar
    38    50    51   ar
    39    51    52   ar
    40     5    22    1
    41    22    23    1
    42    23    24   ar
    43    24    25   ar
    44    25    26   ar
    45    26    27   ar
    46    27    28   ar
    47    19    14   ar
    48    34    30   am
    49    52    47   ar
    50    28    23   ar
    51    10    11    1
    52    10    12    1
    53     7     8    1
    54     1     4    1
    55    36    40    1
@<TRIPOS>MOLECULE
*****
 52 55 0 0 0
SMALL
GASTEIGER

@<TRIPOS>ATOM
      1 N          24.5784   26.7923    2.1805 N.am    1  UNL1       -0.3017
      2 C          24.4626   27.6926    0.9864 C.2     1  UNL1        0.2406
      3 O          24.3246   27.5691    0.2110 O.2     1  UNL1       -0.2733
      4 H          24.7580   27.1746    3.0698 H       1  UNL1        0.1495
      5 C          24.4205   25.3093    2.0198 C.3     1  UNL1        0.1086
      6 C          23.0510   24.6972    2.0138 C.3     1  UNL1        0.1839
      7 O          22.8307   23.3585    1.3740 O.3     1  UNL1       -0.3775
      8 H          21.9452   22.9626    1.3701 H       1  UNL1        0.2106
      9 C          21.9020   25.4237    2.6475 C.3     1  UNL1        0.1339
     10 N          20.9846   26.2577    1.8033 N.4     1  UNL1        0.2597
     11 H          21.3666   26.9926    1.2080 H       1  UNL1        0.2040
     12 H          21.9904   26.4255    1.7821 H       1  UNL1        0.2040
     13 C          19.5053   26.0110    1.8344 C.3     1  UNL1        0.1299
     14 C          17.9168   22.3855    1.5469 C.ar    1  UNL1        0.1386
     15 C          18.4799   23.6433    2.1391 C.ar    1  UNL1        0.0383
     16 C          18.9422   24.7531    1.2421 C.ar    1  UNL1        0.0356
     17 C          18.8413   24.6051   -0.2472 C.ar    1  UNL1        0.0016
     18 C          18.2781   23.3473   -0.8394 C.ar    1  UNL1        0.0030
     19 C          17.8159   22.2375    0.0576 C.ar    1  UNL1        0.0369
     20 O          17.4545   21.2757    2.4439 O.3     1  UNL1       -0.4714
     21 C          18.3936   20.1636    2.8060 C.3     1  UNL1        0.2525
     22 C          25.6319   24.4385    1.8650 C.3     1  UNL1        0.0486
     23 C          26.3507   24.3803    0.5498 C.ar    1  UNL1       -0.0204
     24 C          27.3826   25.4154    0.2125 C.ar    1  UNL1       -0.0042
     25 C          28.1014   25.3572   -1.1027 C.ar    1  UNL1       -0.0003
     26 C          27.7883   24.2638   -2.0808 C.ar    1  UNL1       -0.0000
     27 C          26.7564   23.2287   -1.7436 C.ar    1  UNL1       -0.0003
     28 C          26.0376   23.2869   -0.4283 C.ar    1  UNL1       -0.0042
     29 C          24.6205   29.1756    1.1471 C.3     1  UNL1        0.1521
     30 N          23.4423   30.0816    0.9446 N.am    1  UNL1       -0.2716
     31 C          22.0757   29.8960    1.5346 C.3     1  UNL1        0.0960
     32 C          21.2126   31.0320    1.0711 C.3     1  UNL1        0.0484
     33 C          22.0458   31.9196    0.1948 C.3     1  UNL1        0.1273
     34 C          23.4238   31.3322    0.1166 C.2     1  UNL1        0.2418
     35 O          24.5803   31.8965   -0.6542 O.2     1  UNL1       -0.2732
     36 N          22.6159   32.9762   -0.7045 N.am    1  UNL1       -0.2999
     37 C          23.1857   34.2333   -0.1171 C.2     1  UNL1        0.2232
     38 O          23.2381   34.4708    0.8365 O.2     1  UNL1       -0.2751
     39 C          23.7557   35.2899   -1.0163 C.3     1  UNL1        0.0946
     40 H          22.6160   32.8445   -1.6801 H       1  UNL1        0.1498
     41 C          20.7870   32.7278    0.0850 C.3     1  UNL1        0.0249
     42 C          20.3792   33.0801   -0.7385 C.3     1  UNL1        0.0021
     43 C          20.0099   33.0773    1.3195 C.3     1  UNL1        0.0021
     44 C          18.5242   33.2677    1.2417 C.3     1  UNL1        0.0001
     45 C          25.9566   29.7526    1.5103 C.3     1  UNL1        0.0339
     46 C          27.1731   29.3876    0.7124 C.3     1  UNL1        0.0286
     47 C          27.3637   29.9510   -0.6647 C.ar    1  UNL1       -0.0221
     48 C          27.9793   31.3073   -0.8415 C.ar    1  UNL1       -0.0043
     49 C          28.1699   31.8708   -2.2185 C.ar    1  UNL1       -0.0003
     50 C          27.7448   31.0778   -3.4188 C.ar    1  UNL1       -0.0000
     51 C          27.1292   29.7215   -3.2420 C.ar    1  UNL1       -0.0003
     52 C          26.9386   29.1581   -1.8649 C.ar    1  UNL1       -0.0043
@<TRIPOS>UNITY_ATOM_ATTR
10 1
charge 1
@<TRIPOS>BOND
     1    20    21    1
     2    20    14    1
     3    14    15   ar
     4    15    16   ar
     5    16    17   ar
     6    17    18   ar
     7    18    19   ar
     8    16    13    1
     9    13    10    1
    10    10     9    1
    11     9     6    1
    12     6     7    1
    13     6     5    1
    14     5     1    1
    15     1     2   am
    16     2     3    2
    17     2    29    1
    18    29    30    1
    19    30    31    1
    20    31    32    1
    21    32    33    1
    22    33    36    1
    23    36    37   am
    24    37    38    2
    25    37    39    1
    26    33    41    1
    27    41    43    1
    28    43    44    1
    29    41    42    1
    30    33    34    1
    31    34    35    2
    32    29    45    1
    33    45    46    1
    34    46    47    1
    35    47    48   ar
    36    48    49   ar
    37    49    50   ar
    38    50    51   ar
    39    51    52   ar
    40     5    22    1
    41    22    23    1
    42    23    24   ar
    43    24    25   ar
    44    25    26   ar
    45    26    27   ar
    46    27    28   ar
    47    19    14   ar
    48    34    30   am
    49    52    47   ar
    50    28    23   ar
    51    10    11    1
    52    10    12    1
    53     7     8    1
    54     1     4    1
    55    36    40    1
@<TRIPOS>MOLECULE
*****
 52 55 0 0 0
SMALL
GASTEIGER

@<TRIPOS>ATOM
      1 N          22.8273   19.3355    0.5109 N.am    1  UNL1       -0.3017
      2 C          22.0626   18.8337    1.6998 C.2     1  UNL1        0.2406
      3 O          22.2692   18.6062    2.4354 O.2     1  UNL1       -0.2733
      4 H          22.3513   19.5629   -0.3203 H       1  UNL1        0.1495
      5 C          24.3172   19.4908    0.5885 C.3     1  UNL1        0.1086
      6 C          25.1284   18.5387    1.4165 C.3     1  UNL1        0.1839
      7 O          25.7369   18.9987    2.7080 O.3     1  UNL1       -0.3775
      8 H          26.2615   18.3830    3.2434 H       1  UNL1        0.2106
      9 C          25.3310   17.1266    0.9529 C.3     1  UNL1        0.1339
     10 N          25.0136   15.9831    1.8703 N.4     1  UNL1        0.2597
     11 H          25.7004   15.6761    2.5591 H       1  UNL1        0.2040
     12 H          25.9163   16.4537    1.9352 H       1  UNL1        0.2040
     13 C          23.6862   15.2911    1.7748 C.3     1  UNL1        0.1299
     14 C          21.9235   12.0013    3.1239 C.ar    1  UNL1        0.1386
     15 C          22.1223   13.3361    2.4690 C.ar    1  UNL1        0.0383
     16 C          23.4875   13.9563    2.4297 C.ar    1  UNL1        0.0356
     17 C          24.6539   13.2418    3.0453 C.ar    1  UNL1        0.0016
     18 C          24.4551   11.9071    3.7002 C.ar    1  UNL1        0.0030
     19 C          23.0899   11.2869    3.7395 C.ar    1  UNL1        0.0369
     20 O          20.5583   11.3811    3.1632 O.3     1  UNL1       -0.4714
     21 C          20.3483    9.9956    2.6281 C.3     1  UNL1        0.2525
     22 C          24.9959   20.5982   -0.1618 C.3     1  UNL1        0.0486
     23 C          25.1939   20.4881   -1.6446 C.ar    1  UNL1       -0.0204
     24 C          25.8286   21.6163   -2.4024 C.ar    1  UNL1       -0.0042
     25 C          26.0266   21.5062   -3.8851 C.ar    1  UNL1       -0.0003
     26 C          25.5898   20.2677   -4.6102 C.ar    1  UNL1       -0.0000
     27 C          24.9551   19.1395   -3.8524 C.ar    1  UNL1       -0.0003
     28 C          24.7571   19.2497   -2.3696 C.ar    1  UNL1       -0.0042
     29 C          20.5727   18.6784    1.6222 C.3     1  UNL1        0.1521
     30 N          19.6849   19.8786    1.7687 N.am    1  UNL1       -0.2716
     31 C          18.6592   20.0907    2.8425 C.3     1  UNL1        0.0960
     32 C          18.0073   21.4206    2.6045 C.3     1  UNL1        0.0484
     33 C          18.6301   22.0303    1.3837 C.3     1  UNL1        0.1273
     34 C          19.6669   21.0772    0.8671 C.2     1  UNL1        0.2418
     35 O          20.5336   21.2862   -0.3392 O.2     1  UNL1       -0.2732
     36 N          19.0548   22.8761    0.2200 N.am    1  UNL1       -0.2999
     37 C          18.3214   22.7789   -1.0849 C.2     1  UNL1        0.2232
     38 O          17.5531   22.1994   -1.2909 O.2     1  UNL1       -0.2751
     39 C          18.7460   23.6247   -2.2487 C.3     1  UNL1        0.0946
     40 H          19.8148   23.4950    0.3126 H       1  UNL1        0.1498
     41 C          17.6821   23.1601    1.6569 C.3     1  UNL1        0.0249
     42 C          16.7089   23.1653    1.5107 C.3     1  UNL1        0.0021
     43 C          18.1978   24.4539    2.2137 C.3     1  UNL1        0.0021
     44 C          18.2335   25.6805    1.3512 C.3     1  UNL1        0.0001
     45 C          19.9705   17.3230    1.3983 C.3     1  UNL1        0.0339
     46 C          20.0634   16.6748    0.0487 C.3     1  UNL1        0.0286
     47 C          20.0269   17.5171   -1.1920 C.ar    1  UNL1       -0.0221
     48 C          21.2248   17.5779   -2.0927 C.ar    1  UNL1       -0.0043
     49 C          21.1884   18.4201   -3.3333 C.ar    1  UNL1       -0.0003
     50 C          19.9539   19.2016   -3.6733 C.ar    1  UNL1       -0.0000
     51 C          18.7560   19.1408   -2.7726 C.ar    1  UNL1       -0.0003
     52 C          18.7925   18.2985   -1.5319 C.ar    1  UNL1       -0.0043
@<TRIPOS>UNITY_ATOM_ATTR
10 1
charge 1
@<TRIPOS>BOND
     1    20    21    1
     2    20    14    1
     3    14    15   ar
     4    15    16   ar
     5    16    17   ar
     6    17    18   ar
     7    18    19   ar
     8    16    13    1
     9    13    10    1
    10    10     9    1
    11     9     6    1
    12     6     7    1
    13     6     5    1
    14     5     1    1
    15     1     2   am
    16     2     3    2
    17     2    29    1
    18    29    30    1
    19    30    31    1
    20    31    32    1
    21    32    33    1
    22    33    36    1
    23    36    37   am
    24    37    38    2
    25    37    39    1
    26    33    41    1
    27    41    43    1
    28    43    44    1
    29    41    42    1
    30    33    34    1
    31    34    35    2
    32    29    45    1
    33    45    46    1
    34    46    47    1
    35    47    48   ar
    36    48    49   ar
    37    49    50   ar
    38    50    51   ar
    39    51    52   ar
    40     5    22    1
    41    22    23    1
    42    23    24   ar
    43    24    25   ar
    44    25    26   ar
    45    26    27   ar
    46    27    28   ar
    47    19    14   ar
    48    34    30   am
    49    52    47   ar
    50    28    23   ar
    51    10    11    1
    52    10    12    1
    53     7     8    1
    54     1     4    1
    55    36    40    1
@<TRIPOS>MOLECULE
*****
 52 55 0 0 0
SMALL
GASTEIGER

@<TRIPOS>ATOM
      1 N          22.7072   19.3547    0.5563 N.am    1  UNL1       -0.3017
      2 C          21.9412   19.0214    1.8021 C.2     1  UNL1        0.2406
      3 O          22.1476   18.8915    2.5611 O.2     1  UNL1       -0.2733
      4 H          22.2311   19.4742   -0.2971 H       1  UNL1        0.1495
      5 C          24.1985   19.5059    0.6108 C.3     1  UNL1        0.1086
      6 C          25.0257   18.5129    1.3722 C.3     1  UNL1        0.1839
      7 O          25.6675   18.9087    2.6688 O.3     1  UNL1       -0.3775
      8 H          26.2024   18.2666    3.1612 H       1  UNL1        0.2106
      9 C          25.2112   17.1240    0.8368 C.3     1  UNL1        0.1339
     10 N          25.0202   15.9408    1.7387 N.4     1  UNL1        0.2597
     11 H          25.8083   15.5737    2.2722 H       1  UNL1        0.2040
     12 H          25.9382   16.3783    1.6588 H       1  UNL1        0.2040
     13 C          23.6703   15.2974    1.8562 C.3     1  UNL1        0.1299
     14 C          22.0868   11.8625    3.0578 C.ar    1  UNL1        0.1386
     15 C          22.2169   13.2270    2.4487 C.ar    1  UNL1        0.0383
     16 C          23.5403   13.9329    2.4654 C.ar    1  UNL1        0.0356
     17 C          24.7337   13.2742    3.0913 C.ar    1  UNL1        0.0016
     18 C          24.6037   11.9097    3.7005 C.ar    1  UNL1        0.0030
     19 C          23.2802   11.2038    3.6838 C.ar    1  UNL1        0.0369
     20 O          20.7634   11.1567    3.0411 O.3     1  UNL1       -0.4714
     21 C          19.5353   11.8768    2.5687 C.3     1  UNL1        0.2525
     22 C          24.8627   20.6501   -0.0961 C.3     1  UNL1        0.0486
     23 C          25.1431   20.5619   -1.5670 C.ar    1  UNL1       -0.0204
     24 C          25.8349   21.6934   -2.2678 C.ar    1  UNL1       -0.0042
     25 C          26.1153   21.6051   -3.7387 C.ar    1  UNL1       -0.0003
     26 C          25.7040   20.3853   -4.5088 C.ar    1  UNL1       -0.0000
     27 C          25.0122   19.2539   -3.8080 C.ar    1  UNL1       -0.0003
     28 C          24.7317   19.3422   -2.3370 C.ar    1  UNL1       -0.0042
     29 C          20.4497   18.8702    1.7477 C.3     1  UNL1        0.1521
     30 N          19.5704   20.0843    1.7991 N.am    1  UNL1       -0.2716
     31 C          18.5228   20.3711    2.8337 C.3     1  UNL1        0.0960
     32 C          17.8893   21.6889    2.4989 C.3     1  UNL1        0.0484
     33 C          18.5453   22.2166    1.2575 C.3     1  UNL1        0.1273
     34 C          19.5843   21.2249    0.8250 C.2     1  UNL1        0.2418
     35 O          20.4800   21.3516   -0.3716 O.2     1  UNL1       -0.2732
     36 N          19.0043   22.9851    0.0539 N.am    1  UNL1       -0.2999
     37 C          18.2776   22.8401   -1.2504 C.2     1  UNL1        0.2232
     38 O          17.4933   22.2740   -1.4317 O.2     1  UNL1       -0.2751
     39 C          18.7365   23.6085   -2.4540 C.3     1  UNL1        0.0946
     40 H          19.7823   23.5847    0.1199 H       1  UNL1        0.1498
     41 C          17.6023   23.3689    1.4384 C.3     1  UNL1        0.0249
     42 C          16.6279   23.3221    1.5684 C.3     1  UNL1        0.0021
     43 C          18.1257   24.7746    1.4320 C.3     1  UNL1        0.0021
     44 C          18.9775   25.2629    2.5659 C.3     1  UNL1        0.0001
     45 C          19.8377   17.5049    1.6419 C.3     1  UNL1        0.0339
     46 C          20.3195   16.5462    0.5937 C.3     1  UNL1        0.0286
     47 C          19.3307   15.8114   -0.2621 C.ar    1  UNL1       -0.0221
     48 C          18.8867   16.3996   -1.5686 C.ar    1  UNL1       -0.0043
     49 C          17.8979   15.6649   -2.4244 C.ar    1  UNL1       -0.0003
     50 C          17.3531   14.3419   -1.9738 C.ar    1  UNL1       -0.0000
     51 C          17.7971   13.7538   -0.6673 C.ar    1  UNL1       -0.0003
     52 C          18.7859   14.4885    0.1886 C.ar    1  UNL1       -0.0043
@<TRIPOS>UNITY_ATOM_ATTR
10 1
charge 1
@<TRIPOS>BOND
     1    20    21    1
     2    20    14    1
     3    14    15   ar
     4    15    16   ar
     5    16    17   ar
     6    17    18   ar
     7    18    19   ar
     8    16    13    1
     9    13    10    1
    10    10     9    1
    11     9     6    1
    12     6     7    1
    13     6     5    1
    14     5     1    1
    15     1     2   am
    16     2     3    2
    17     2    29    1
    18    29    30    1
    19    30    31    1
    20    31    32    1
    21    32    33    1
    22    33    36    1
    23    36    37   am
    24    37    38    2
    25    37    39    1
    26    33    41    1
    27    41    43    1
    28    43    44    1
    29    41    42    1
    30    33    34    1
    31    34    35    2
    32    29    45    1
    33    45    46    1
    34    46    47    1
    35    47    48   ar
    36    48    49   ar
    37    49    50   ar
    38    50    51   ar
    39    51    52   ar
    40     5    22    1
    41    22    23    1
    42    23    24   ar
    43    24    25   ar
    44    25    26   ar
    45    26    27   ar
    46    27    28   ar
    47    19    14   ar
    48    34    30   am
    49    52    47   ar
    50    28    23   ar
    51    10    11    1
    52    10    12    1
    53     7     8    1
    54     1     4    1
    55    36    40    1
@<TRIPOS>MOLECULE
*****
 52 55 0 0 0
SMALL
GASTEIGER

@<TRIPOS>ATOM
      1 N          24.5151   23.7365    0.3731 N.am    1  UNL1       -0.3017
      2 C          25.4007   22.5261    0.3977 C.2     1  UNL1        0.2406
      3 O          25.9550   22.2557    0.9028 O.2     1  UNL1       -0.2733
      4 H          23.8864   23.8713   -0.3725 H       1  UNL1        0.1495
      5 C          24.5873   24.7414    1.4843 C.3     1  UNL1        0.1086
      6 C          23.3265   25.2571    2.1123 C.3     1  UNL1        0.1839
      7 O          22.8838   24.7322    3.4459 O.3     1  UNL1       -0.3775
      8 H          22.0685   25.0657    3.8520 H       1  UNL1        0.2106
      9 C          22.5084   26.2977    1.4067 C.3     1  UNL1        0.1339
     10 N          21.1975   25.9238    0.7809 N.4     1  UNL1        0.2597
     11 H          21.1145   25.8674   -0.2341 H       1  UNL1        0.2040
     12 H          22.0060   26.1217    0.1914 H       1  UNL1        0.2040
     13 C          20.0084   25.6328    1.6479 C.3     1  UNL1        0.1299
     14 C          18.7873   22.1349    0.2251 C.ar    1  UNL1        0.1386
     15 C          19.6624   23.3159    0.5242 C.ar    1  UNL1        0.0383
     16 C          19.1333   24.4517    1.3488 C.ar    1  UNL1        0.0356
     17 C          17.7291   24.4066    1.8744 C.ar    1  UNL1        0.0016
     18 C          16.8541   23.2256    1.5753 C.ar    1  UNL1        0.0030
     19 C          17.3832   22.0898    0.7507 C.ar    1  UNL1        0.0369
     20 O          19.3164   20.9991   -0.5995 O.3     1  UNL1       -0.4714
     21 C          18.3655   20.0705   -1.2948 C.3     1  UNL1        0.2525
     22 C          25.9204   25.2306    1.9676 C.3     1  UNL1        0.0486
     23 C          26.3951   26.6040    1.5956 C.ar    1  UNL1       -0.0204
     24 C          26.4651   27.0082    0.1528 C.ar    1  UNL1       -0.0042
     25 C          26.9398   28.3816   -0.2191 C.ar    1  UNL1       -0.0003
     26 C          27.3445   29.3509    0.8518 C.ar    1  UNL1       -0.0000
     27 C          27.2745   28.9467    2.2946 C.ar    1  UNL1       -0.0003
     28 C          26.7998   27.5732    2.6665 C.ar    1  UNL1       -0.0042
     29 C          25.3285   21.5211   -0.7136 C.3     1  UNL1        0.1521
     30 N          24.5124   20.2739   -0.5449 N.am    1  UNL1       -0.2716
     31 C          24.8959   18.8999   -1.0089 C.3     1  UNL1        0.0960
     32 C          23.7900   17.9585   -0.6334 C.3     1  UNL1        0.0484
     33 C          22.7232   18.7506    0.0626 C.3     1  UNL1        0.1273
     34 C          23.1697   20.1816    0.1173 C.2     1  UNL1        0.2418
     35 O          22.4072   21.3203    0.7271 O.2     1  UNL1       -0.2732
     36 N          21.5101   19.2661    0.7785 N.am    1  UNL1       -0.2999
     37 C          21.4534   19.2338    2.2770 C.2     1  UNL1        0.2232
     38 O          22.1478   18.8993    2.8890 O.2     1  UNL1       -0.2751
     39 C          20.2403   19.7493    2.9930 C.3     1  UNL1        0.0946
     40 H          20.7511   19.6257    0.2648 H       1  UNL1        0.1498
     41 C          22.0232   17.4274    0.1576 C.3     1  UNL1        0.0249
     42 C          22.4048   16.5766    0.4724 C.3     1  UNL1        0.0021
     43 C          20.5855   17.3082   -0.2534 C.3     1  UNL1        0.0021
     44 C          19.7097   16.2654    0.3753 C.3     1  UNL1        0.0001
     45 C          26.0722   21.7634   -1.9934 C.3     1  UNL1        0.0339
     46 C          26.4004   23.1646   -2.4163 C.3     1  UNL1        0.0286
     47 C          27.8171   23.6540   -2.3556 C.ar    1  UNL1       -0.0221
     48 C          28.3027   24.3968   -1.1463 C.ar    1  UNL1       -0.0043
     49 C          29.7193   24.8863   -1.0855 C.ar    1  UNL1       -0.0003
     50 C          30.6503   24.6329   -2.2341 C.ar    1  UNL1       -0.0000
     51 C          30.1647   23.8901   -3.4434 C.ar    1  UNL1       -0.0003
     52 C          28.7480   23.4007   -3.5041 C.ar    1  UNL1       -0.0043
@<TRIPOS>UNITY_ATOM_ATTR
10 1
charge 1
@<TRIPOS>BOND
     1    20    21    1
     2    20    14    1
     3    14    15   ar
     4    15    16   ar
     5    16    17   ar
     6    17    18   ar
     7    18    19   ar
     8    16    13    1
     9    13    10    1
    10    10     9    1
    11     9     6    1
    12     6     7    1
    13     6     5    1
    14     5     1    1
    15     1     2   am
    16     2     3    2
    17     2    29    1
    18    29    30    1
    19    30    31    1
    20    31    32    1
    21    32    33    1
    22    33    36    1
    23    36    37   am
    24    37    38    2
    25    37    39    1
    26    33    41    1
    27    41    43    1
    28    43    44    1
    29    41    42    1
    30    33    34    1
    31    34    35    2
    32    29    45    1
    33    45    46    1
    34    46    47    1
    35    47    48   ar
    36    48    49   ar
    37    49    50   ar
    38    50    51   ar
    39    51    52   ar
    40     5    22    1
    41    22    23    1
    42    23    24   ar
    43    24    25   ar
    44    25    26   ar
    45    26    27   ar
    46    27    28   ar
    47    19    14   ar
    48    34    30   am
    49    52    47   ar
    50    28    23   ar
    51    10    11    1
    52    10    12    1
    53     7     8    1
    54     1     4    1
    55    36    40    1
@<TRIPOS>MOLECULE
*****
 52 55 0 0 0
SMALL
GASTEIGER

@<TRIPOS>ATOM
      1 N          23.2034   20.4682   -0.3053 N.am    1  UNL1       -0.3017
      2 C          24.6821   20.6714   -0.1560 C.2     1  UNL1        0.2406
      3 O          25.2185   20.4532    0.3918 O.2     1  UNL1       -0.2733
      4 H          22.7322   20.8375   -1.0869 H       1  UNL1        0.1495
      5 C          22.4427   19.7025    0.7363 C.3     1  UNL1        0.1086
      6 C          21.4695   20.4141    1.6288 C.3     1  UNL1        0.1839
      7 O          21.6821   21.8595    1.9686 O.3     1  UNL1       -0.3775
      8 H          21.0527   22.3197    2.5458 H       1  UNL1        0.2106
      9 C          20.2837   19.6802    2.1814 C.3     1  UNL1        0.1339
     10 N          19.2165   20.4297    2.9225 N.4     1  UNL1        0.2597
     11 H          19.2466   20.4866    3.9405 H       1  UNL1        0.2040
     12 H          19.9723   19.9770    3.4365 H       1  UNL1        0.2040
     13 C          18.1051   21.0955    2.1667 C.3     1  UNL1        0.1299
     14 C          18.8248   24.0027   -0.4372 C.ar    1  UNL1        0.1386
     15 C          18.6252   22.6313    0.1367 C.ar    1  UNL1        0.0383
     16 C          18.3047   22.4670    1.5928 C.ar    1  UNL1        0.0356
     17 C          18.1839   23.6741    2.4750 C.ar    1  UNL1        0.0016
     18 C          18.3836   25.0454    1.9011 C.ar    1  UNL1        0.0030
     19 C          18.7040   25.2098    0.4450 C.ar    1  UNL1        0.0369
     20 O          19.1453   24.1670   -1.8934 O.3     1  UNL1       -0.4714
     21 C          18.2461   23.5646   -2.9318 C.3     1  UNL1        0.2525
     22 C          22.6552   18.2251    0.8854 C.3     1  UNL1        0.0486
     23 C          22.9035   17.3770   -0.3266 C.ar    1  UNL1       -0.0204
     24 C          21.8745   17.3057   -1.4158 C.ar    1  UNL1       -0.0042
     25 C          22.1229   16.4576   -2.6278 C.ar    1  UNL1       -0.0003
     26 C          23.4002   15.6807   -2.7507 C.ar    1  UNL1       -0.0000
     27 C          24.4291   15.7521   -1.6616 C.ar    1  UNL1       -0.0003
     28 C          24.1807   16.6002   -0.4495 C.ar    1  UNL1       -0.0042
     29 C          25.4428   21.4372   -1.1976 C.3     1  UNL1        0.1521
     30 N          25.9042   22.8357   -0.9125 N.am    1  UNL1       -0.2716
     31 C          27.0779   23.5232   -1.5451 C.3     1  UNL1        0.0960
     32 C          27.1718   24.9047   -0.9683 C.3     1  UNL1        0.0484
     33 C          26.0563   25.0711    0.0207 C.3     1  UNL1        0.1273
     34 C          25.2729   23.7924    0.0551 C.2     1  UNL1        0.2418
     35 O          24.0694   23.5185    0.9075 O.2     1  UNL1       -0.2732
     36 N          25.0611   25.5245    1.0472 N.am    1  UNL1       -0.2999
     37 C          23.8234   26.2563    0.6198 C.2     1  UNL1        0.2232
     38 O          23.5624   26.4923   -0.2992 O.2     1  UNL1       -0.2751
     39 C          22.8281   26.7098    1.6463 C.3     1  UNL1        0.0946
     40 H          25.2202   25.3418    2.0014 H       1  UNL1        0.1498
     41 C          26.6317   26.4445    0.2008 C.3     1  UNL1        0.0249
     42 C          26.8652   26.8821    1.0508 C.3     1  UNL1        0.0021
     43 C          26.9091   27.3045   -0.9965 C.3     1  UNL1        0.0021
     44 C          26.2747   28.6588   -1.1103 C.3     1  UNL1        0.0001
     45 C          25.7423   20.8044   -2.5242 C.3     1  UNL1        0.0339
     46 C          26.0603   19.3406   -2.6022 C.3     1  UNL1        0.0286
     47 C          25.5848   18.5311   -3.7721 C.ar    1  UNL1       -0.0221
     48 C          24.2915   18.8780   -4.4481 C.ar    1  UNL1       -0.0043
     49 C          23.8159   18.0685   -5.6179 C.ar    1  UNL1       -0.0003
     50 C          24.6336   16.9120   -6.1117 C.ar    1  UNL1       -0.0000
     51 C          25.9269   16.5650   -5.4357 C.ar    1  UNL1       -0.0003
     52 C          26.4025   17.3746   -4.2659 C.ar    1  UNL1       -0.0043
@<TRIPOS>UNITY_ATOM_ATTR
10 1
charge 1
@<TRIPOS>BOND
     1    20    21    1
     2    20    14    1
     3    14    15   ar
     4    15    16   ar
     5    16    17   ar
     6    17    18   ar
     7    18    19   ar
     8    16    13    1
     9    13    10    1
    10    10     9    1
    11     9     6    1
    12     6     7    1
    13     6     5    1
    14     5     1    1
    15     1     2   am
    16     2     3    2
    17     2    29    1
    18    29    30    1
    19    30    31    1
    20    31    32    1
    21    32    33    1
    22    33    36    1
    23    36    37   am
    24    37    38    2
    25    37    39    1
    26    33    41    1
    27    41    43    1
    28    43    44    1
    29    41    42    1
    30    33    34    1
    31    34    35    2
    32    29    45    1
    33    45    46    1
    34    46    47    1
    35    47    48   ar
    36    48    49   ar
    37    49    50   ar
    38    50    51   ar
    39    51    52   ar
    40     5    22    1
    41    22    23    1
    42    23    24   ar
    43    24    25   ar
    44    25    26   ar
    45    26    27   ar
    46    27    28   ar
    47    19    14   ar
    48    34    30   am
    49    52    47   ar
    50    28    23   ar
    51    10    11    1
    52    10    12    1
    53     7     8    1
    54     1     4    1
    55    36    40    1
@<TRIPOS>MOLECULE
*****
 52 55 0 0 0
SMALL
GASTEIGER

@<TRIPOS>ATOM
      1 N          20.9616   20.0386   -0.4608 N.am    1  UNL1       -0.3017
      2 C          20.1555   19.1425   -1.3536 C.2     1  UNL1        0.2406
      3 O          20.0617   18.3526   -1.4065 O.2     1  UNL1       -0.2733
      4 H          20.9230   21.0152   -0.5791 H       1  UNL1        0.1495
      5 C          21.8265   19.4468    0.6123 C.3     1  UNL1        0.1086
      6 C          23.2984   19.7352    0.6334 C.3     1  UNL1        0.1839
      7 O          24.2133   18.9045    1.4835 O.3     1  UNL1       -0.3775
      8 H          25.1651   19.0910    1.4971 H       1  UNL1        0.2106
      9 C          23.8553   20.8545   -0.1955 C.3     1  UNL1        0.1339
     10 N          25.1131   21.5507    0.2323 N.4     1  UNL1        0.2597
     11 H          25.5789   21.2764    1.0973 H       1  UNL1        0.2040
     12 H          24.7235   20.8030    0.8064 H       1  UNL1        0.2040
     13 C          25.6861   22.6502   -0.6119 C.3     1  UNL1        0.1299
     14 C          27.0481   26.3541   -0.1918 C.ar    1  UNL1        0.1386
     15 C          26.6267   25.0625   -0.8275 C.ar    1  UNL1        0.0383
     16 C          26.1074   23.9419    0.0238 C.ar    1  UNL1        0.0356
     17 C          26.0096   24.1130    1.5108 C.ar    1  UNL1        0.0016
     18 C          26.4309   25.4046    2.1465 C.ar    1  UNL1        0.0030
     19 C          26.9502   26.5251    1.2952 C.ar    1  UNL1        0.0369
     20 O          27.5673   27.4747   -1.0431 O.3     1  UNL1       -0.4714
     21 C          27.1442   28.8865   -0.7643 C.3     1  UNL1        0.2525
     22 C          21.2196   18.5666    1.6644 C.3     1  UNL1        0.0486
     23 C          20.2163   19.1302    2.6265 C.ar    1  UNL1       -0.0204
     24 C          18.9993   19.8395    2.1112 C.ar    1  UNL1       -0.0042
     25 C          17.9960   20.4031    3.0734 C.ar    1  UNL1       -0.0003
     26 C          18.2098   20.2574    4.5509 C.ar    1  UNL1       -0.0000
     27 C          19.4268   19.5480    5.0663 C.ar    1  UNL1       -0.0003
     28 C          20.4301   18.9844    4.1040 C.ar    1  UNL1       -0.0042
     29 C          19.2905   19.7343   -2.4268 C.3     1  UNL1        0.1521
     30 N          18.9641   18.9345   -3.6530 N.am    1  UNL1       -0.2716
     31 C          19.8484   18.7582   -4.8519 C.3     1  UNL1        0.0960
     32 C          19.1269   17.8852   -5.8355 C.3     1  UNL1        0.0484
     33 C          17.7969   17.5221   -5.2447 C.3     1  UNL1        0.1273
     34 C          17.6963   18.1705   -3.8958 C.2     1  UNL1        0.2418
     35 O          16.5322   18.0723   -2.9550 O.2     1  UNL1       -0.2732
     36 N          16.4281   17.0006   -4.9217 N.am    1  UNL1       -0.2999
     37 C          16.2706   15.6526   -4.2829 C.2     1  UNL1        0.2232
     38 O          16.9889   15.0280   -4.0328 O.2     1  UNL1       -0.2751
     39 C          14.9018   15.1310   -3.9598 C.3     1  UNL1        0.0946
     40 H          15.6331   17.5430   -5.1289 H       1  UNL1        0.1498
     41 C          17.6113   16.7646   -6.5260 C.3     1  UNL1        0.0249
     42 C          18.2936   16.2496   -7.0138 C.3     1  UNL1        0.0021
     43 C          16.2699   16.7426   -7.1968 C.3     1  UNL1        0.0021
     44 C          15.9043   15.6067   -8.1055 C.3     1  UNL1        0.0001
     45 C          18.7519   21.1258   -2.2736 C.3     1  UNL1        0.0339
     46 C          17.7480   21.4276   -1.2008 C.3     1  UNL1        0.0286
     47 C          17.9043   22.6537   -0.3508 C.ar    1  UNL1       -0.0221
     48 C          18.8795   23.7221   -0.7476 C.ar    1  UNL1       -0.0043
     49 C          19.0358   24.9481    0.1023 C.ar    1  UNL1       -0.0003
     50 C          18.2168   25.1058    1.3490 C.ar    1  UNL1       -0.0000
     51 C          17.2415   24.0375    1.7459 C.ar    1  UNL1       -0.0003
     52 C          17.0853   22.8114    0.8959 C.ar    1  UNL1       -0.0043
@<TRIPOS>UNITY_ATOM_ATTR
10 1
charge 1
@<TRIPOS>BOND
     1    20    21    1
     2    20    14    1
     3    14    15   ar
     4    15    16   ar
     5    16    17   ar
     6    17    18   ar
     7    18    19   ar
     8    16    13    1
     9    13    10    1
    10    10     9    1
    11     9     6    1
    12     6     7    1
    13     6     5    1
    14     5     1    1
    15     1     2   am
    16     2     3    2
    17     2    29    1
    18    29    30    1
    19    30    31    1
    20    31    32    1
    21    32    33    1
    22    33    36    1
    23    36    37   am
    24    37    38    2
    25    37    39    1
    26    33    41    1
    27    41    43    1
    28    43    44    1
    29    41    42    1
    30    33    34    1
    31    34    35    2
    32    29    45    1
    33    45    46    1
    34    46    47    1
    35    47    48   ar
    36    48    49   ar
    37    49    50   ar
    38    50    51   ar
    39    51    52   ar
    40     5    22    1
    41    22    23    1
    42    23    24   ar
    43    24    25   ar
    44    25    26   ar
    45    26    27   ar
    46    27    28   ar
    47    19    14   ar
    48    34    30   am
    49    52    47   ar
    50    28    23   ar
    51    10    11    1
    52    10    12    1
    53     7     8    1
    54     1     4    1
    55    36    40    1
@<TRIPOS>MOLECULE
*****
 52 55 0 0 0
SMALL
GASTEIGER

@<TRIPOS>ATOM
      1 N          22.9309   20.0591   -0.8617 N.am    1  UNL1       -0.3017
      2 C          22.4889   19.2589    0.3275 C.2     1  UNL1        0.2406
      3 O          22.8638   18.9611    0.9649 O.2     1  UNL1       -0.2733
      4 H          22.2760   20.3251   -1.5470 H       1  UNL1        0.1495
      5 C          24.3706   20.4541   -1.0068 C.3     1  UNL1        0.1086
      6 C          24.8483   21.7644   -0.4544 C.3     1  UNL1        0.1839
      7 O          24.1136   22.4118    0.6818 O.3     1  UNL1       -0.3775
      8 H          24.4224   23.2591    1.0390 H       1  UNL1        0.2106
      9 C          26.0606   22.4272   -1.0383 C.3     1  UNL1        0.1339
     10 N          26.4784   23.7848   -0.5563 N.4     1  UNL1        0.2597
     11 H          27.0355   23.8752    0.2933 H       1  UNL1        0.2040
     12 H          26.7513   22.9520   -0.0344 H       1  UNL1        0.2040
     13 C          26.0772   25.0095   -1.3239 C.3     1  UNL1        0.1299
     14 C          23.5736   26.7229    1.2347 C.ar    1  UNL1        0.1386
     15 C          24.4976   25.7178    0.6134 C.ar    1  UNL1        0.0383
     16 C          25.1531   26.0147   -0.7027 C.ar    1  UNL1        0.0356
     17 C          24.8848   27.3166   -1.3975 C.ar    1  UNL1        0.0016
     18 C          23.9608   28.3217   -0.7763 C.ar    1  UNL1        0.0030
     19 C          23.3052   28.0249    0.5398 C.ar    1  UNL1        0.0369
     20 O          22.9180   26.4261    2.5508 O.3     1  UNL1       -0.4714
     21 C          22.4047   25.0464    2.8387 C.3     1  UNL1        0.2525
     22 C          25.3328   19.5388   -1.7043 C.3     1  UNL1        0.0486
     23 C          24.8177   18.3975   -2.5301 C.ar    1  UNL1       -0.0204
     24 C          24.5185   17.0781   -1.8823 C.ar    1  UNL1       -0.0042
     25 C          24.0034   15.9368   -2.7082 C.ar    1  UNL1       -0.0003
     26 C          23.7876   16.1148   -4.1819 C.ar    1  UNL1       -0.0000
     27 C          24.0868   17.4342   -4.8297 C.ar    1  UNL1       -0.0003
     28 C          24.6019   18.5756   -4.0038 C.ar    1  UNL1       -0.0042
     29 C          21.0491   18.8639    0.4726 C.3     1  UNL1        0.1521
     30 N          20.0149   19.9026    0.7909 N.am    1  UNL1       -0.2716
     31 C          19.5561   20.2985    2.1632 C.3     1  UNL1        0.0960
     32 C          18.5155   21.3684    2.0132 C.3     1  UNL1        0.0484
     33 C          18.3312   21.6338    0.5484 C.3     1  UNL1        0.1273
     34 C          19.2578   20.7279   -0.2070 C.2     1  UNL1        0.2418
     35 O          19.4021   20.6593   -1.6984 O.2     1  UNL1       -0.2732
     36 N          17.9359   22.1093   -0.8182 N.am    1  UNL1       -0.2999
     37 C          18.6361   23.2836   -1.4352 C.2     1  UNL1        0.2232
     38 O          19.3635   23.8148   -1.0388 O.2     1  UNL1       -0.2751
     39 C          18.2408   23.7591   -2.8018 C.3     1  UNL1        0.0946
     40 H          17.2169   21.6507   -1.3101 H       1  UNL1        0.1498
     41 C          17.3219   22.6391    1.0181 C.3     1  UNL1        0.0249
     42 C          16.3860   22.7204    0.7247 C.3     1  UNL1        0.0021
     43 C          17.7052   23.6636    2.0445 C.3     1  UNL1        0.0021
     44 C          17.9711   25.0797    1.6279 C.3     1  UNL1        0.0001
     45 C          20.6436   17.4302    0.2994 C.3     1  UNL1        0.0339
     46 C          20.7821   16.7681   -1.0394 C.3     1  UNL1        0.0286
     47 C          20.1261   17.3715   -2.2459 C.ar    1  UNL1       -0.0221
     48 C          18.6410   17.2610   -2.4262 C.ar    1  UNL1       -0.0043
     49 C          17.9850   17.8643   -3.6327 C.ar    1  UNL1       -0.0003
     50 C          18.8140   18.5782   -4.6589 C.ar    1  UNL1       -0.0000
     51 C          20.2990   18.6888   -4.4787 C.ar    1  UNL1       -0.0003
     52 C          20.9551   18.0854   -3.2721 C.ar    1  UNL1       -0.0043
@<TRIPOS>UNITY_ATOM_ATTR
10 1
charge 1
@<TRIPOS>BOND
     1    20    21    1
     2    20    14    1
     3    14    15   ar
     4    15    16   ar
     5    16    17   ar
     6    17    18   ar
     7    18    19   ar
     8    16    13    1
     9    13    10    1
    10    10     9    1
    11     9     6    1
    12     6     7    1
    13     6     5    1
    14     5     1    1
    15     1     2   am
    16     2     3    2
    17     2    29    1
    18    29    30    1
    19    30    31    1
    20    31    32    1
    21    32    33    1
    22    33    36    1
    23    36    37   am
    24    37    38    2
    25    37    39    1
    26    33    41    1
    27    41    43    1
    28    43    44    1
    29    41    42    1
    30    33    34    1
    31    34    35    2
    32    29    45    1
    33    45    46    1
    34    46    47    1
    35    47    48   ar
    36    48    49   ar
    37    49    50   ar
    38    50    51   ar
    39    51    52   ar
    40     5    22    1
    41    22    23    1
    42    23    24   ar
    43    24    25   ar
    44    25    26   ar
    45    26    27   ar
    46    27    28   ar
    47    19    14   ar
    48    34    30   am
    49    52    47   ar
    50    28    23   ar
    51    10    11    1
    52    10    12    1
    53     7     8    1
    54     1     4    1
    55    36    40    1
@<TRIPOS>MOLECULE
*****
 52 55 0 0 0
SMALL
GASTEIGER

@<TRIPOS>ATOM
      1 N          22.5235   18.4346   -0.7224 N.am    1  UNL1       -0.3017
      2 C          21.6111   18.0769    0.4131 C.2     1  UNL1        0.2406
      3 O          21.7291   17.8261    1.1605 O.2     1  UNL1       -0.2733
      4 H          22.1465   18.7285   -1.5830 H       1  UNL1        0.1495
      5 C          24.0104   18.3443   -0.5467 C.3     1  UNL1        0.1086
      6 C          24.7524   19.4494    0.1450 C.3     1  UNL1        0.1839
      7 O          25.3453   19.2191    1.5035 O.3     1  UNL1       -0.3775
      8 H          25.8250   19.9337    1.9507 H       1  UNL1        0.2106
      9 C          24.9014   20.7847   -0.5218 C.3     1  UNL1        0.1339
     10 N          24.9533   22.0347    0.3058 N.4     1  UNL1        0.2597
     11 H          24.3162   22.1514    1.0937 H       1  UNL1        0.2040
     12 H          24.2809   21.3015    0.5310 H       1  UNL1        0.2040
     13 C          25.9420   23.1130   -0.0254 C.3     1  UNL1        0.1299
     14 C          26.8943   26.7069    1.3626 C.ar    1  UNL1        0.1386
     15 C          27.0200   25.3535    0.7282 C.ar    1  UNL1        0.0383
     16 C          25.8163   24.4664    0.6090 C.ar    1  UNL1        0.0356
     17 C          24.4870   24.9327    1.1242 C.ar    1  UNL1        0.0016
     18 C          24.3614   26.2861    1.7585 C.ar    1  UNL1        0.0030
     19 C          25.5650   27.1732    1.8778 C.ar    1  UNL1        0.0369
     20 O          28.0980   27.5940    1.4818 O.3     1  UNL1       -0.4714
     21 C          28.0242   28.8533    2.2935 C.3     1  UNL1        0.2525
     22 C          24.7555   17.1490   -1.0626 C.3     1  UNL1        0.0486
     23 C          26.1240   17.3158   -1.6534 C.ar    1  UNL1       -0.0204
     24 C          26.3092   18.1325   -2.8979 C.ar    1  UNL1       -0.0042
     25 C          27.6778   18.2994   -3.4887 C.ar    1  UNL1       -0.0003
     26 C          28.8612   17.6495   -2.8351 C.ar    1  UNL1       -0.0000
     27 C          28.6761   16.8328   -1.5906 C.ar    1  UNL1       -0.0003
     28 C          27.3074   16.6660   -0.9998 C.ar    1  UNL1       -0.0042
     29 C          20.1241   18.1672    0.2374 C.3     1  UNL1        0.1521
     30 N          19.3938   19.4096    0.6533 N.am    1  UNL1       -0.2716
     31 C          19.1785   19.8758    2.0627 C.3     1  UNL1        0.0960
     32 C          18.4022   21.1583    2.0132 C.3     1  UNL1        0.0484
     33 C          18.1376   21.4848    0.5733 C.3     1  UNL1        0.1273
     34 C          18.7505   20.4041   -0.2672 C.2     1  UNL1        0.2418
     35 O          18.7245   20.3306   -1.7652 O.2     1  UNL1       -0.2732
     36 N          17.7271   22.0624   -0.7487 N.am    1  UNL1       -0.2999
     37 C          18.5910   23.0891   -1.4193 C.2     1  UNL1        0.2232
     38 O          19.4418   23.4556   -1.0872 O.2     1  UNL1       -0.2751
     39 C          18.1804   23.6668   -2.7413 C.3     1  UNL1        0.0946
     40 H          16.8906   21.7678   -1.1762 H       1  UNL1        0.1498
     41 C          17.4390   22.6863    1.1374 C.3     1  UNL1        0.0249
     42 C          16.4994   22.9443    0.9993 C.3     1  UNL1        0.0021
     43 C          18.1867   23.6449    2.0161 C.3     1  UNL1        0.0021
     44 C          18.2293   25.1035    1.6690 C.3     1  UNL1        0.0001
     45 C          19.3675   17.0150   -0.3542 C.3     1  UNL1        0.0339
     46 C          19.0190   17.0166   -1.8131 C.3     1  UNL1        0.0286
     47 C          17.8809   16.1772   -2.3133 C.ar    1  UNL1       -0.0221
     48 C          17.8021   14.7249   -1.9461 C.ar    1  UNL1       -0.0043
     49 C          16.6640   13.8856   -2.4463 C.ar    1  UNL1       -0.0003
     50 C          15.6046   14.4984   -3.3137 C.ar    1  UNL1       -0.0000
     51 C          15.6834   15.9506   -3.6808 C.ar    1  UNL1       -0.0003
     52 C          16.8216   16.7900   -3.1806 C.ar    1  UNL1       -0.0043
@<TRIPOS>UNITY_ATOM_ATTR
10 1
charge 1
@<TRIPOS>BOND
     1    20    21    1
     2    20    14    1
     3    14    15   ar
     4    15    16   ar
     5    16    17   ar
     6    17    18   ar
     7    18    19   ar
     8    16    13    1
     9    13    10    1
    10    10     9    1
    11     9     6    1
    12     6     7    1
    13     6     5    1
    14     5     1    1
    15     1     2   am
    16     2     3    2
    17     2    29    1
    18    29    30    1
    19    30    31    1
    20    31    32    1
    21    32    33    1
    22    33    36    1
    23    36    37   am
    24    37    38    2
    25    37    39    1
    26    33    41    1
    27    41    43    1
    28    43    44    1
    29    41    42    1
    30    33    34    1
    31    34    35    2
    32    29    45    1
    33    45    46    1
    34    46    47    1
    35    47    48   ar
    36    48    49   ar
    37    49    50   ar
    38    50    51   ar
    39    51    52   ar
    40     5    22    1
    41    22    23    1
    42    23    24   ar
    43    24    25   ar
    44    25    26   ar
    45    26    27   ar
    46    27    28   ar
    47    19    14   ar
    48    34    30   am
    49    52    47   ar
    50    28    23   ar
    51    10    11    1
    52    10    12    1
    53     7     8    1
    54     1     4    1
    55    36    40    1
@<TRIPOS>MOLECULE
*****
 46 50 0 0 0
SMALL
GASTEIGER

@<TRIPOS>ATOM
      1 C          22.1653   31.7112    1.1289 C.3     1  UNL1        0.1839
      2 O          21.9867   32.5653    2.3490 O.3     1  UNL1       -0.3775
      3 H          21.4421   32.2492    3.0868 H       1  UNL1        0.2106
      4 C          23.0075   32.2000   -0.0120 C.3     1  UNL1        0.1087
      5 N          23.4926   33.6193   -0.0319 N.am    1  UNL1       -0.3011
      6 C          22.5490   34.7295   -0.3882 C.2     1  UNL1        0.2497
      7 O          21.1202   34.4205   -0.7247 O.2     1  UNL1       -0.2725
      8 H          24.4304   33.8221    0.1889 H       1  UNL1        0.1495
      9 C          23.0342   36.1487   -0.4081 C.3     1  UNL1        0.1909
     10 C          24.3694   36.4933    0.1824 C.3     1  UNL1        0.0420
     11 O          22.1842   37.2234   -1.0184 O.3     1  UNL1       -0.3444
     12 C          22.8212   38.3161   -1.8247 C.3     1  UNL1        0.1747
     13 C          23.3646   31.2696   -1.1331 C.3     1  UNL1        0.0486
     14 C          26.2512   28.5476   -1.2234 C.ar    1  UNL1        0.0235
     15 C          24.8843   29.1626   -1.1657 C.ar    1  UNL1       -0.0022
     16 C          24.7315   30.6546   -1.1908 C.ar    1  UNL1       -0.0204
     17 C          25.9456   31.5315   -1.2736 C.ar    1  UNL1       -0.0042
     18 C          27.3125   30.9165   -1.3313 C.ar    1  UNL1       -0.0003
     19 C          27.4652   29.4245   -1.3062 C.ar    1  UNL1        0.0020
     20 S          27.7009   26.3022   -1.1861 S.2     1  UNL1       -0.0659
     21 C          27.3852   24.8360   -1.1613 C.ar    1  UNL1        0.0575
     22 C          25.8930   24.6832   -1.1581 C.ar    1  UNL1        0.1064
     23 N          25.2866   26.0550   -1.1810 N.ar    1  UNL1       -0.2368
     24 C          26.4040   27.0556   -1.1983 C.ar    1  UNL1        0.1107
     25 C          21.5016   30.3683    1.0497 C.3     1  UNL1        0.1337
     26 N          21.5932   29.4171    2.2059 N.4     1  UNL1        0.2554
     27 H          20.9758   29.5307    3.0098 H       1  UNL1        0.2037
     28 H          21.6555   28.7703    2.9922 H       1  UNL1        0.2037
     29 C          22.5928   28.2989    2.1799 C.3     1  UNL1        0.0835
     30 C          24.0574   28.5993    2.3002 C.3     1  UNL1        0.0998
     31 C          25.0570   27.4812    2.2742 C.3     1  UNL1        0.1405
     32 O          24.5918   26.0627    2.1279 O.3     1  UNL1       -0.4673
     33 C          23.1271   25.7623    2.0076 C.ar    1  UNL1        0.2258
     34 N          22.6620   24.3437    1.8613 N.ar    1  UNL1       -0.2106
     35 C          21.1973   24.0433    1.7411 C.ar    1  UNL1        0.0977
     36 C          20.1978   25.1616    1.7671 C.ar    1  UNL1       -0.0029
     37 C          20.6629   26.5800    1.9134 C.ar    1  UNL1        0.0031
     38 C          22.1276   26.8804    2.0336 C.ar    1  UNL1        0.0794
     39 C          25.8745   28.7293    2.4295 C.3     1  UNL1        0.0404
     40 C          27.1284   27.9060    2.4442 C.3     1  UNL1        0.0072
     41 C          26.3109   26.6580    2.2889 C.3     1  UNL1        0.0404
     42 C          18.7331   24.8612    1.6468 C.3     1  UNL1        0.0279
     43 C          18.2669   23.7437    0.7613 C.3     1  UNL1        0.0041
     44 C          17.8830   22.9450    1.9715 C.3     1  UNL1        0.0003
     45 C          18.6508   24.5425   -0.4489 C.3     1  UNL1        0.0003
     46 C          17.8007   22.6263   -0.1241 C.3     1  UNL1        0.0003
@<TRIPOS>UNITY_ATOM_ATTR
26 1
charge 1
@<TRIPOS>BOND
     1    20    21   ar
     2    21    22   ar
     3    22    23   ar
     4    23    24   ar
     5    24    14    1
     6    14    15   ar
     7    15    16   ar
     8    16    17   ar
     9    17    18   ar
    10    18    19   ar
    11    16    13    1
    12     4    13    1
    13     4     5    1
    14     5     6   am
    15     6     7    2
    16     6     9    1
    17     9    11    1
    18    11    12    1
    19     9    10    1
    20     4     1    1
    21     1     2    1
    22     1    25    1
    23    25    26    1
    24    29    26    1
    25    29    30    1
    26    30    31    1
    27    31    32    1
    28    32    33    1
    29    33    34   ar
    30    34    35   ar
    31    35    36   ar
    32    36    37   ar
    33    37    38   ar
    34    36    42    1
    35    42    43    1
    36    43    44    1
    37    43    45    1
    38    43    46    1
    39    31    39    1
    40    39    40    1
    41    40    41    1
    42    24    20   ar
    43    19    14   ar
    44    38    29    1
    45    41    31    1
    46    38    33   ar
    47     5     8    1
    48     2     3    1
    49    26    27    1
    50    26    28    1
@<TRIPOS>MOLECULE
*****
 46 50 0 0 0
SMALL
GASTEIGER

@<TRIPOS>ATOM
      1 C          21.2168   31.5017    0.5261 C.3     1  UNL1        0.1839
      2 O          19.8385   32.0383    0.7762 O.3     1  UNL1       -0.3775
      3 H          19.4215   31.9184    1.6438 H       1  UNL1        0.2106
      4 C          21.8617   31.6870   -0.8154 C.3     1  UNL1        0.1087
      5 N          22.4439   30.5079   -1.5370 N.am    1  UNL1       -0.3011
      6 C          23.8670   30.1043   -1.2886 C.2     1  UNL1        0.2497
      7 O          24.7081   30.8799   -0.3184 O.2     1  UNL1       -0.2725
      8 H          21.8919   29.9988   -2.1737 H       1  UNL1        0.1495
      9 C          24.4491   28.9252   -2.0102 C.3     1  UNL1        0.1909
     10 C          24.4409   27.5715   -1.3640 C.3     1  UNL1        0.0420
     11 O          25.0395   29.0997   -3.3781 O.3     1  UNL1       -0.3444
     12 C          26.3597   29.7925   -3.5423 C.3     1  UNL1        0.1747
     13 C          21.9245   33.0515   -1.4352 C.3     1  UNL1        0.0486
     14 C          25.5882   34.4405   -2.0665 C.ar    1  UNL1        0.0235
     15 C          24.3438   33.9956   -1.3570 C.ar    1  UNL1       -0.0022
     16 C          23.1690   33.4963   -2.1448 C.ar    1  UNL1       -0.0204
     17 C          23.2387   33.4419   -3.6422 C.ar    1  UNL1       -0.0042
     18 C          24.4831   33.8867   -4.3517 C.ar    1  UNL1       -0.0003
     19 C          25.6579   34.3860   -3.5639 C.ar    1  UNL1        0.0020
     20 S          27.2035   36.3689   -1.1626 S.2     1  UNL1       -0.0659
     21 C          28.4162   36.4100   -0.2808 C.ar    1  UNL1        0.0575
     22 C          28.7252   35.0062    0.1481 C.ar    1  UNL1        0.1064
     23 N          27.7034   34.0976   -0.4686 N.ar    1  UNL1       -0.2368
     24 C          26.7629   34.9398   -1.2787 C.ar    1  UNL1        0.1107
     25 C          21.9500   30.7796    1.6175 C.3     1  UNL1        0.1337
     26 N          21.5214   29.4010    2.0242 N.4     1  UNL1        0.2554
     27 H          20.5517   29.2252    2.2873 H       1  UNL1        0.2037
     28 H          21.2299   28.4634    2.3008 H       1  UNL1        0.2037
     29 C          22.5188   28.2807    2.0440 C.3     1  UNL1        0.0835
     30 C          23.9823   28.5818    2.1761 C.3     1  UNL1        0.0998
     31 C          24.9797   27.4617    2.1959 C.3     1  UNL1        0.1405
     32 O          24.5135   26.0404    2.0836 O.3     1  UNL1       -0.4673
     33 C          23.0500   25.7393    1.9515 C.ar    1  UNL1        0.2258
     34 N          22.5839   24.3179    1.8392 N.ar    1  UNL1       -0.2106
     35 C          21.1204   24.0168    1.7071 C.ar    1  UNL1        0.0977
     36 C          20.1230   25.1370    1.6873 C.ar    1  UNL1       -0.0029
     37 C          20.5891   26.5583    1.7996 C.ar    1  UNL1        0.0031
     38 C          22.0527   26.8594    1.9317 C.ar    1  UNL1        0.0794
     39 C          25.7977   28.7122    2.3271 C.3     1  UNL1        0.0404
     40 C          27.0495   27.8875    2.3828 C.3     1  UNL1        0.0072
     41 C          26.2315   26.6370    2.2516 C.3     1  UNL1        0.0404
     42 C          18.6595   24.8359    1.5551 C.3     1  UNL1        0.0279
     43 C          18.1991   23.7375    0.6431 C.3     1  UNL1        0.0041
     44 C          17.6702   22.9788    1.8240 C.3     1  UNL1        0.0003
     45 C          18.7281   24.4963   -0.5378 C.3     1  UNL1        0.0003
     46 C          17.7388   22.6392   -0.2688 C.3     1  UNL1        0.0003
@<TRIPOS>UNITY_ATOM_ATTR
26 1
charge 1
@<TRIPOS>BOND
     1    20    21   ar
     2    21    22   ar
     3    22    23   ar
     4    23    24   ar
     5    24    14    1
     6    14    15   ar
     7    15    16   ar
     8    16    17   ar
     9    17    18   ar
    10    18    19   ar
    11    16    13    1
    12     4    13    1
    13     4     5    1
    14     5     6   am
    15     6     7    2
    16     6     9    1
    17     9    11    1
    18    11    12    1
    19     9    10    1
    20     4     1    1
    21     1     2    1
    22     1    25    1
    23    25    26    1
    24    29    26    1
    25    29    30    1
    26    30    31    1
    27    31    32    1
    28    32    33    1
    29    33    34   ar
    30    34    35   ar
    31    35    36   ar
    32    36    37   ar
    33    37    38   ar
    34    36    42    1
    35    42    43    1
    36    43    44    1
    37    43    45    1
    38    43    46    1
    39    31    39    1
    40    39    40    1
    41    40    41    1
    42    24    20   ar
    43    19    14   ar
    44    38    29    1
    45    41    31    1
    46    38    33   ar
    47     5     8    1
    48     2     3    1
    49    26    27    1
    50    26    28    1
@<TRIPOS>MOLECULE
*****
 46 50 0 0 0
SMALL
GASTEIGER

@<TRIPOS>ATOM
      1 C          21.6386   31.4031    0.3648 C.3     1  UNL1        0.1839
      2 O          20.2739   31.9399    0.0493 O.3     1  UNL1       -0.3775
      3 H          19.5716   31.9022    0.7173 H       1  UNL1        0.2106
      4 C          22.7247   31.4613   -0.6682 C.3     1  UNL1        0.1087
      5 N          23.4952   32.7315   -0.8755 N.am    1  UNL1       -0.3011
      6 C          22.8187   33.9304   -1.4711 C.2     1  UNL1        0.2497
      7 O          21.3715   33.8593   -1.8593 O.2     1  UNL1       -0.2725
      8 H          24.4451   32.7782   -0.6208 H       1  UNL1        0.1495
      9 C          23.5892   35.2006   -1.6784 C.3     1  UNL1        0.1909
     10 C          25.0843   35.1604   -1.7940 C.3     1  UNL1        0.0420
     11 O          22.8648   36.5108   -1.7702 O.3     1  UNL1       -0.3444
     12 C          22.5869   37.3028   -0.5271 C.3     1  UNL1        0.1747
     13 C          23.0402   30.2494   -1.4937 C.3     1  UNL1        0.0486
     14 C          26.0412   29.9007   -4.0672 C.ar    1  UNL1        0.0235
     15 C          24.6580   30.0967   -3.5209 C.ar    1  UNL1       -0.0022
     16 C          24.4234   30.0533   -2.0400 C.ar    1  UNL1       -0.0204
     17 C          25.5720   29.8140   -1.1054 C.ar    1  UNL1       -0.0042
     18 C          26.9551   29.6179   -1.6517 C.ar    1  UNL1       -0.0003
     19 C          27.1897   29.6613   -3.1326 C.ar    1  UNL1        0.0020
     20 S          26.4759   31.1805   -6.3733 S.2     1  UNL1       -0.0659
     21 C          26.6752   30.7592   -7.7990 C.ar    1  UNL1        0.0575
     22 C          26.5983   29.2622   -7.8550 C.ar    1  UNL1        0.1064
     23 N          26.3515   28.7584   -6.4639 N.ar    1  UNL1       -0.2368
     24 C          26.2758   29.9440   -5.5481 C.ar    1  UNL1        0.1107
     25 C          21.9172   30.8081    1.7133 C.3     1  UNL1        0.1337
     26 N          21.4867   29.4037    2.0169 N.4     1  UNL1        0.2554
     27 H          20.5059   29.2017    2.2113 H       1  UNL1        0.2037
     28 H          21.1939   28.4487    2.2233 H       1  UNL1        0.2037
     29 C          22.4983   28.2963    2.0346 C.3     1  UNL1        0.0835
     30 C          23.9594   28.6170    2.1458 C.3     1  UNL1        0.0998
     31 C          24.9711   27.5097    2.1635 C.3     1  UNL1        0.1405
     32 O          24.5217   26.0817    2.0701 O.3     1  UNL1       -0.4673
     33 C          23.0606   25.7610    1.9589 C.ar    1  UNL1        0.2258
     34 N          22.6112   24.3329    1.8654 N.ar    1  UNL1       -0.2106
     35 C          21.1501   24.0122    1.7543 C.ar    1  UNL1        0.0977
     36 C          20.1384   25.1196    1.7365 C.ar    1  UNL1       -0.0029
     37 C          20.5878   26.5476    1.8300 C.ar    1  UNL1        0.0031
     38 C          22.0489   26.8683    1.9412 C.ar    1  UNL1        0.0794
     39 C          25.7747   28.7716    2.2730 C.3     1  UNL1        0.0404
     40 C          27.0375   27.9633    2.3207 C.3     1  UNL1        0.0072
     41 C          26.2338   26.7014    2.2112 C.3     1  UNL1        0.0404
     42 C          18.6773   24.7989    1.6254 C.3     1  UNL1        0.0279
     43 C          18.2120   23.7434    0.6665 C.3     1  UNL1        0.0041
     44 C          17.6914   22.9302    1.8143 C.3     1  UNL1        0.0003
     45 C          18.7325   24.5568   -0.4814 C.3     1  UNL1        0.0003
     46 C          17.7466   22.6879   -0.2923 C.3     1  UNL1        0.0003
@<TRIPOS>UNITY_ATOM_ATTR
26 1
charge 1
@<TRIPOS>BOND
     1    20    21   ar
     2    21    22   ar
     3    22    23   ar
     4    23    24   ar
     5    24    14    1
     6    14    15   ar
     7    15    16   ar
     8    16    17   ar
     9    17    18   ar
    10    18    19   ar
    11    16    13    1
    12     4    13    1
    13     4     5    1
    14     5     6   am
    15     6     7    2
    16     6     9    1
    17     9    11    1
    18    11    12    1
    19     9    10    1
    20     4     1    1
    21     1     2    1
    22     1    25    1
    23    25    26    1
    24    29    26    1
    25    29    30    1
    26    30    31    1
    27    31    32    1
    28    32    33    1
    29    33    34   ar
    30    34    35   ar
    31    35    36   ar
    32    36    37   ar
    33    37    38   ar
    34    36    42    1
    35    42    43    1
    36    43    44    1
    37    43    45    1
    38    43    46    1
    39    31    39    1
    40    39    40    1
    41    40    41    1
    42    24    20   ar
    43    19    14   ar
    44    38    29    1
    45    41    31    1
    46    38    33   ar
    47     5     8    1
    48     2     3    1
    49    26    27    1
    50    26    28    1
@<TRIPOS>MOLECULE
*****
 46 50 0 0 0
SMALL
GASTEIGER

@<TRIPOS>ATOM
      1 C          22.9347   16.6849    1.4056 C.3     1  UNL1        0.1839
      2 O          24.3117   16.4855    1.9659 O.3     1  UNL1       -0.3775
      3 H          24.6951   15.5953    2.0052 H       1  UNL1        0.2106
      4 C          22.3418   18.0613    1.3449 C.3     1  UNL1        0.1087
      5 N          21.8208   18.7094    2.5933 N.am    1  UNL1       -0.3011
      6 C          20.3892   18.5165    2.9972 C.2     1  UNL1        0.2497
      7 O          19.4784   17.6755    2.1526 O.2     1  UNL1       -0.2725
      8 H          22.4186   19.2614    3.1476 H       1  UNL1        0.1495
      9 C          19.8682   19.1645    4.2456 C.3     1  UNL1        0.1909
     10 C          18.5009   19.7813    4.2560 C.3     1  UNL1        0.0420
     11 O          20.7146   19.1958    5.4837 O.3     1  UNL1       -0.3444
     12 C          20.3965   18.2857    6.6327 C.3     1  UNL1        0.1747
     13 C          22.2698   18.7898    0.0356 C.3     1  UNL1        0.0486
     14 C          19.3286   21.4358   -0.2774 C.ar    1  UNL1        0.0235
     15 C          20.6114   20.7864    0.1501 C.ar    1  UNL1       -0.0022
     16 C          20.9870   19.4391   -0.3919 C.ar    1  UNL1       -0.0204
     17 C          20.0798   18.7412   -1.3613 C.ar    1  UNL1       -0.0042
     18 C          18.7970   19.3906   -1.7888 C.ar    1  UNL1       -0.0003
     19 C          18.4214   20.7378   -1.2468 C.ar    1  UNL1        0.0020
     20 S          18.1880   23.0431    1.5284 S.2     1  UNL1       -0.0659
     21 C          18.0387   24.5276    1.6828 C.ar    1  UNL1        0.0575
     22 C          18.7114   25.1851    0.5144 C.ar    1  UNL1        0.1064
     23 N          19.2764   24.1070   -0.3621 N.ar    1  UNL1       -0.2368
     24 C          18.9530   22.7831    0.2646 C.ar    1  UNL1        0.1107
     25 C          22.1504   15.5077    0.9062 C.3     1  UNL1        0.1337
     26 N          20.7665   15.2535    1.4258 N.4     1  UNL1        0.2554
     27 H          20.4909   15.6129    2.3397 H       1  UNL1        0.2037
     28 H          19.8254   15.0806    1.7792 H       1  UNL1        0.2037
     29 C          19.7879   14.4706    0.6014 C.3     1  UNL1        0.0835
     30 C          18.9847   15.1581   -0.4626 C.3     1  UNL1        0.0998
     31 C          18.0061   14.3754   -1.2870 C.3     1  UNL1        0.1405
     32 O          17.8307   12.9051   -1.0472 O.3     1  UNL1       -0.4673
     33 C          18.6339   12.2176    0.0169 C.ar    1  UNL1        0.2258
     34 N          18.4584   10.7473    0.2566 N.ar    1  UNL1       -0.2106
     35 C          19.2615   10.0598    1.3207 C.ar    1  UNL1        0.0977
     36 C          20.2402   10.8426    2.1450 C.ar    1  UNL1       -0.0029
     37 C          20.4156   12.3129    1.9053 C.ar    1  UNL1        0.0031
     38 C          19.6124   13.0004    0.8412 C.ar    1  UNL1        0.0794
     39 C          17.9093   15.7813   -1.8008 C.3     1  UNL1        0.0404
     40 C          16.8702   15.3476   -2.7919 C.3     1  UNL1        0.0072
     41 C          16.9670   13.9416   -2.2781 C.3     1  UNL1        0.0404
     42 C          21.0433   10.1551    3.2091 C.3     1  UNL1        0.0279
     43 C          22.5175   10.4104    3.3186 C.3     1  UNL1        0.0041
     44 C          22.3066   11.0533    4.6573 C.3     1  UNL1        0.0003
     45 C          22.7283    9.7674    1.9799 C.3     1  UNL1        0.0003
     46 C          23.9915   10.6657    3.4282 C.3     1  UNL1        0.0003
@<TRIPOS>UNITY_ATOM_ATTR
26 1
charge 1
@<TRIPOS>BOND
     1    20    21   ar
     2    21    22   ar
     3    22    23   ar
     4    23    24   ar
     5    24    14    1
     6    14    15   ar
     7    15    16   ar
     8    16    17   ar
     9    17    18   ar
    10    18    19   ar
    11    16    13    1
    12     4    13    1
    13     4     5    1
    14     5     6   am
    15     6     7    2
    16     6     9    1
    17     9    11    1
    18    11    12    1
    19     9    10    1
    20     4     1    1
    21     1     2    1
    22     1    25    1
    23    25    26    1
    24    29    26    1
    25    29    30    1
    26    30    31    1
    27    31    32    1
    28    32    33    1
    29    33    34   ar
    30    34    35   ar
    31    35    36   ar
    32    36    37   ar
    33    37    38   ar
    34    36    42    1
    35    42    43    1
    36    43    44    1
    37    43    45    1
    38    43    46    1
    39    31    39    1
    40    39    40    1
    41    40    41    1
    42    24    20   ar
    43    19    14   ar
    44    38    29    1
    45    41    31    1
    46    38    33   ar
    47     5     8    1
    48     2     3    1
    49    26    27    1
    50    26    28    1
@<TRIPOS>MOLECULE
*****
 46 50 0 0 0
SMALL
GASTEIGER

@<TRIPOS>ATOM
      1 C          20.4995   17.7867    0.3174 C.3     1  UNL1        0.1839
      2 O          21.4201   17.8475   -0.8654 O.3     1  UNL1       -0.3775
      3 H          21.8310   17.0360   -1.2024 H       1  UNL1        0.2106
      4 C          19.8641   19.0415    0.8385 C.3     1  UNL1        0.1087
      5 N          19.3082   19.0782    2.2312 N.am    1  UNL1       -0.3011
      6 C          20.2367   19.1113    3.4088 C.2     1  UNL1        0.2497
      7 O          21.7212   19.1079    3.1937 O.2     1  UNL1       -0.2725
      8 H          18.3338   19.0804    2.3723 H       1  UNL1        0.1495
      9 C          19.6807   19.1480    4.8014 C.3     1  UNL1        0.1909
     10 C          18.5903   20.1179    5.1484 C.3     1  UNL1        0.0420
     11 O          20.2151   18.2148    5.8471 O.3     1  UNL1       -0.3444
     12 C          20.6140   18.7451    7.1923 C.3     1  UNL1        0.1747
     13 C          19.7847   20.2597   -0.0331 C.3     1  UNL1        0.0486
     14 C          19.4291   23.9136    1.4746 C.ar    1  UNL1        0.0235
     15 C          20.0450   22.6521    0.9461 C.ar    1  UNL1       -0.0022
     16 C          19.1687   21.5212    0.4955 C.ar    1  UNL1       -0.0204
     17 C          17.6764   21.6517    0.5733 C.ar    1  UNL1       -0.0042
     18 C          17.0605   22.9132    1.1019 C.ar    1  UNL1       -0.0003
     19 C          17.9369   24.0441    1.5525 C.ar    1  UNL1        0.0020
     20 S          21.7899   24.9815    2.1314 S.2     1  UNL1       -0.0659
     21 C          22.2531   26.3350    2.5824 C.ar    1  UNL1        0.0575
     22 C          21.0549   27.2346    2.6551 C.ar    1  UNL1        0.1064
     23 N          19.8513   26.4369    2.2489 N.ar    1  UNL1       -0.2368
     24 C          20.3055   25.0445    1.9253 C.ar    1  UNL1        0.1107
     25 C          20.2143   16.4710    0.9790 C.3     1  UNL1        0.1337
     26 N          20.5327   15.1893    0.2678 N.4     1  UNL1        0.2554
     27 H          21.4922   14.9864   -0.0127 H       1  UNL1        0.2037
     28 H          20.7492   14.3177   -0.2159 H       1  UNL1        0.2037
     29 C          19.4401   14.2059   -0.0310 C.3     1  UNL1        0.0835
     30 C          18.4576   14.4871   -1.1290 C.3     1  UNL1        0.0998
     31 C          17.3650   13.5038   -1.4278 C.3     1  UNL1        0.1405
     32 O          17.2549   12.2393   -0.6286 O.3     1  UNL1       -0.4673
     33 C          18.2375   11.9580    0.4694 C.ar    1  UNL1        0.2258
     34 N          18.1273   10.6934    1.2686 N.ar    1  UNL1       -0.2106
     35 C          19.1099   10.4122    2.3666 C.ar    1  UNL1        0.0977
     36 C          20.2025   11.3955    2.6653 C.ar    1  UNL1       -0.0029
     37 C          20.3126   12.6601    1.8662 C.ar    1  UNL1        0.0031
     38 C          19.3300   12.9413    0.7682 C.ar    1  UNL1        0.0794
     39 C          17.1612   14.6204   -2.4085 C.3     1  UNL1        0.0404
     40 C          15.9754   13.9016   -2.9806 C.3     1  UNL1        0.0072
     41 C          16.1792   12.7850   -1.9999 C.3     1  UNL1        0.0404
     42 C          21.1850   11.1143    3.7633 C.3     1  UNL1        0.0279
     43 C          22.6478   11.0024    3.4503 C.3     1  UNL1        0.0041
     44 C          22.3837    9.7529    2.6635 C.3     1  UNL1        0.0003
     45 C          22.9118   12.2519    4.2372 C.3     1  UNL1        0.0003
     46 C          24.1104   10.8904    3.1373 C.3     1  UNL1        0.0003
@<TRIPOS>UNITY_ATOM_ATTR
26 1
charge 1
@<TRIPOS>BOND
     1    20    21   ar
     2    21    22   ar
     3    22    23   ar
     4    23    24   ar
     5    24    14    1
     6    14    15   ar
     7    15    16   ar
     8    16    17   ar
     9    17    18   ar
    10    18    19   ar
    11    16    13    1
    12     4    13    1
    13     4     5    1
    14     5     6   am
    15     6     7    2
    16     6     9    1
    17     9    11    1
    18    11    12    1
    19     9    10    1
    20     4     1    1
    21     1     2    1
    22     1    25    1
    23    25    26    1
    24    29    26    1
    25    29    30    1
    26    30    31    1
    27    31    32    1
    28    32    33    1
    29    33    34   ar
    30    34    35   ar
    31    35    36   ar
    32    36    37   ar
    33    37    38   ar
    34    36    42    1
    35    42    43    1
    36    43    44    1
    37    43    45    1
    38    43    46    1
    39    31    39    1
    40    39    40    1
    41    40    41    1
    42    24    20   ar
    43    19    14   ar
    44    38    29    1
    45    41    31    1
    46    38    33   ar
    47     5     8    1
    48     2     3    1
    49    26    27    1
    50    26    28    1
@<TRIPOS>MOLECULE
*****
 46 50 0 0 0
SMALL
GASTEIGER

@<TRIPOS>ATOM
      1 C          24.8320   18.4876    1.2314 C.3     1  UNL1        0.1839
      2 O          25.7640   19.0240    2.2772 O.3     1  UNL1       -0.3775
      3 H          26.1542   18.4246    2.9325 H       1  UNL1        0.2106
      4 C          24.2287   19.4144    0.2180 C.3     1  UNL1        0.1087
      5 N          24.5519   20.8788    0.2546 N.am    1  UNL1       -0.3011
      6 C          25.4822   21.4672   -0.7643 C.2     1  UNL1        0.2497
      7 O          26.0893   20.5913   -1.8199 O.2     1  UNL1       -0.2725
      8 H          24.1535   21.4536    0.9475 H       1  UNL1        0.1495
      9 C          25.8054   22.9315   -0.7277 C.3     1  UNL1        0.1909
     10 C          26.8830   23.4840   -1.6129 C.3     1  UNL1        0.0420
     11 O          25.0512   23.8432    0.1942 O.3     1  UNL1       -0.3444
     12 C          25.7501   24.4754    1.3611 C.3     1  UNL1        0.1747
     13 C          23.3021   18.8770   -0.8320 C.3     1  UNL1        0.0486
     14 C          19.7052   19.7036    0.6270 C.ar    1  UNL1        0.0235
     15 C          21.1718   19.3958    0.5617 C.ar    1  UNL1       -0.0022
     16 C          21.8355   19.1848   -0.7668 C.ar    1  UNL1       -0.0204
     17 C          21.0325   19.2815   -2.0301 C.ar    1  UNL1       -0.0042
     18 C          19.5659   19.5893   -1.9648 C.ar    1  UNL1       -0.0003
     19 C          18.9023   19.8003   -0.6363 C.ar    1  UNL1        0.0020
     20 S          19.4280   19.2593    3.2482 S.2     1  UNL1       -0.0659
     21 C          18.5002   19.7578    4.3163 C.ar    1  UNL1        0.0575
     22 C          17.5402   20.7212    3.6836 C.ar    1  UNL1        0.1064
     23 N          17.8747   20.8181    2.2246 N.ar    1  UNL1       -0.2368
     24 C          19.0415   19.9147    1.9555 C.ar    1  UNL1        0.1107
     25 C          24.5032   17.0244    1.1991 C.3     1  UNL1        0.1337
     26 N          23.2957   16.5108    1.9256 N.4     1  UNL1        0.2554
     27 H          22.7186   17.1505    2.4717 H       1  UNL1        0.2037
     28 H          22.4745   16.1615    2.4197 H       1  UNL1        0.2037
     29 C          22.9366   15.0564    1.8492 C.3     1  UNL1        0.0835
     30 C          23.7389   14.0447    2.6126 C.3     1  UNL1        0.0998
     31 C          23.3800   12.5903    2.5362 C.3     1  UNL1        0.1405
     32 O          22.2187   12.1476    1.6964 O.3     1  UNL1       -0.4673
     33 C          21.4164   13.1593    0.9329 C.ar    1  UNL1        0.2258
     34 N          20.2551   12.7165    0.0930 N.ar    1  UNL1       -0.2106
     35 C          19.4528   13.7282   -0.6705 C.ar    1  UNL1        0.0977
     36 C          19.8118   15.1826   -0.5940 C.ar    1  UNL1       -0.0029
     37 C          20.9731   15.6253    0.2459 C.ar    1  UNL1        0.0031
     38 C          21.7754   14.6136    1.0093 C.ar    1  UNL1        0.0794
     39 C          24.5680   12.6495    3.4502 C.3     1  UNL1        0.0404
     40 C          24.5146   11.1596    3.6160 C.3     1  UNL1        0.0072
     41 C          23.3266   11.1004    2.7020 C.3     1  UNL1        0.0404
     42 C          19.0096   16.1943   -1.3575 C.3     1  UNL1        0.0279
     43 C          18.7345   15.9864   -2.8174 C.3     1  UNL1        0.0041
     44 C          17.2622   15.9444   -2.5340 C.3     1  UNL1        0.0003
     45 C          20.2070   16.0285   -3.1008 C.3     1  UNL1        0.0003
     46 C          18.4594   15.7786   -4.2772 C.3     1  UNL1        0.0003
@<TRIPOS>UNITY_ATOM_ATTR
26 1
charge 1
@<TRIPOS>BOND
     1    20    21   ar
     2    21    22   ar
     3    22    23   ar
     4    23    24   ar
     5    24    14    1
     6    14    15   ar
     7    15    16   ar
     8    16    17   ar
     9    17    18   ar
    10    18    19   ar
    11    16    13    1
    12     4    13    1
    13     4     5    1
    14     5     6   am
    15     6     7    2
    16     6     9    1
    17     9    11    1
    18    11    12    1
    19     9    10    1
    20     4     1    1
    21     1     2    1
    22     1    25    1
    23    25    26    1
    24    29    26    1
    25    29    30    1
    26    30    31    1
    27    31    32    1
    28    32    33    1
    29    33    34   ar
    30    34    35   ar
    31    35    36   ar
    32    36    37   ar
    33    37    38   ar
    34    36    42    1
    35    42    43    1
    36    43    44    1
    37    43    45    1
    38    43    46    1
    39    31    39    1
    40    39    40    1
    41    40    41    1
    42    24    20   ar
    43    19    14   ar
    44    38    29    1
    45    41    31    1
    46    38    33   ar
    47     5     8    1
    48     2     3    1
    49    26    27    1
    50    26    28    1
@<TRIPOS>MOLECULE
*****
 46 50 0 0 0
SMALL
GASTEIGER

@<TRIPOS>ATOM
      1 C          22.9353   18.6771    1.8202 C.3     1  UNL1        0.1839
      2 O          24.2986   18.7206    2.4442 O.3     1  UNL1       -0.3775
      3 H          24.5075   19.3979    3.1064 H       1  UNL1        0.2106
      4 C          22.6122   17.6297    0.7963 C.3     1  UNL1        0.1087
      5 N          22.3933   16.2078    1.2211 N.am    1  UNL1       -0.3011
      6 C          23.5688   15.3087    1.4656 C.2     1  UNL1        0.2497
      7 O          24.9632   15.8314    1.2853 O.2     1  UNL1       -0.2725
      8 H          21.4782   15.8647    1.3394 H       1  UNL1        0.1495
      9 C          23.3500   13.8869    1.8904 C.3     1  UNL1        0.1909
     10 C          21.9591   13.3285    1.9532 C.3     1  UNL1        0.0420
     11 O          24.5218   13.0234    2.2523 O.3     1  UNL1       -0.3444
     12 C          24.7622   12.6471    3.6843 C.3     1  UNL1        0.1747
     13 C          22.5080   18.0041   -0.6525 C.3     1  UNL1        0.0486
     14 C          25.2187   20.7881   -1.4595 C.ar    1  UNL1        0.0235
     15 C          24.0914   20.0593   -0.7903 C.ar    1  UNL1       -0.0022
     16 C          23.6354   18.7328   -1.3218 C.ar    1  UNL1       -0.0204
     17 C          24.3068   18.1351   -2.5225 C.ar    1  UNL1       -0.0042
     18 C          25.4342   18.8638   -3.1918 C.ar    1  UNL1       -0.0003
     19 C          25.8901   20.1903   -2.6603 C.ar    1  UNL1        0.0020
     20 S          26.4634   23.1430   -1.6831 S.2     1  UNL1       -0.0659
     21 C          26.6982   24.3096   -0.7699 C.ar    1  UNL1        0.0575
     22 C          26.0545   24.0022    0.5496 C.ar    1  UNL1        0.1064
     23 N          25.4220   22.6456    0.4519 N.ar    1  UNL1       -0.2368
     24 C          25.6747   22.1146   -0.9280 C.ar    1  UNL1        0.1107
     25 C          21.8950   19.6810    2.2202 C.3     1  UNL1        0.1337
     26 N          20.4557   19.4516    1.8655 N.4     1  UNL1        0.2554
     27 H          19.9273   18.7135    2.3307 H       1  UNL1        0.2037
     28 H          19.4770   19.2955    1.6244 H       1  UNL1        0.2037
     29 C          19.7935   20.3075    0.8268 C.3     1  UNL1        0.0835
     30 C          19.7267   21.7946    1.0118 C.3     1  UNL1        0.0998
     31 C          19.0646   22.6506   -0.0269 C.3     1  UNL1        0.1405
     32 O          18.4692   22.0195   -1.2505 O.3     1  UNL1       -0.4673
     33 C          18.5360   20.5324   -1.4354 C.ar    1  UNL1        0.2258
     34 N          17.9406   19.9013   -2.6591 N.ar    1  UNL1       -0.2106
     35 C          18.0074   18.4143   -2.8441 C.ar    1  UNL1        0.0977
     36 C          18.6696   17.5583   -1.8053 C.ar    1  UNL1       -0.0029
     37 C          19.2650   18.1894   -0.5817 C.ar    1  UNL1        0.0031
     38 C          19.1982   19.6764   -0.3968 C.ar    1  UNL1        0.0794
     39 C          19.5307   23.6103    1.0275 C.3     1  UNL1        0.0404
     40 C          18.9701   24.7536    0.2347 C.3     1  UNL1        0.0072
     41 C          18.5039   23.7939   -0.8197 C.3     1  UNL1        0.0404
     42 C          18.7364   16.0713   -1.9903 C.3     1  UNL1        0.0279
     43 C          20.0526   15.3601   -1.8799 C.3     1  UNL1        0.0041
     44 C          19.6000   14.7211   -0.6005 C.3     1  UNL1        0.0003
     45 C          20.5052   15.9991   -3.1594 C.3     1  UNL1        0.0003
     46 C          21.3686   14.6490   -1.7695 C.3     1  UNL1        0.0003
@<TRIPOS>UNITY_ATOM_ATTR
26 1
charge 1
@<TRIPOS>BOND
     1    20    21   ar
     2    21    22   ar
     3    22    23   ar
     4    23    24   ar
     5    24    14    1
     6    14    15   ar
     7    15    16   ar
     8    16    17   ar
     9    17    18   ar
    10    18    19   ar
    11    16    13    1
    12     4    13    1
    13     4     5    1
    14     5     6   am
    15     6     7    2
    16     6     9    1
    17     9    11    1
    18    11    12    1
    19     9    10    1
    20     4     1    1
    21     1     2    1
    22     1    25    1
    23    25    26    1
    24    29    26    1
    25    29    30    1
    26    30    31    1
    27    31    32    1
    28    32    33    1
    29    33    34   ar
    30    34    35   ar
    31    35    36   ar
    32    36    37   ar
    33    37    38   ar
    34    36    42    1
    35    42    43    1
    36    43    44    1
    37    43    45    1
    38    43    46    1
    39    31    39    1
    40    39    40    1
    41    40    41    1
    42    24    20   ar
    43    19    14   ar
    44    38    29    1
    45    41    31    1
    46    38    33   ar
    47     5     8    1
    48     2     3    1
    49    26    27    1
    50    26    28    1
@<TRIPOS>MOLECULE
*****
 46 50 0 0 0
SMALL
GASTEIGER

@<TRIPOS>ATOM
      1 C          26.4006   28.1580    0.9986 C.3     1  UNL1        0.1839
      2 O          27.8723   28.3077    0.7499 O.3     1  UNL1       -0.3775
      3 H          28.2174   29.1257    0.3593 H       1  UNL1        0.2106
      4 C          25.8669   26.8930    1.6025 C.3     1  UNL1        0.1087
      5 N          24.4952   26.8720    2.2091 N.am    1  UNL1       -0.3011
      6 C          23.3026   26.5554    1.3562 C.2     1  UNL1        0.2497
      7 O          23.4818   26.2597   -0.1035 O.2     1  UNL1       -0.2725
      8 H          24.3776   27.0661    3.1671 H       1  UNL1        0.1495
      9 C          21.9309   26.5345    1.9628 C.3     1  UNL1        0.1909
     10 C          21.2698   25.2252    2.2772 C.3     1  UNL1        0.0420
     11 O          21.2203   27.8227    2.2549 O.3     1  UNL1       -0.3444
     12 C          21.8386   29.1284    1.8515 C.3     1  UNL1        0.1747
     13 C          26.7049   25.6489    1.5999 C.3     1  UNL1        0.0486
     14 C          25.6711   22.5541   -0.6591 C.ar    1  UNL1        0.0235
     15 C          25.7389   23.5016    0.5017 C.ar    1  UNL1       -0.0022
     16 C          26.6370   24.7014    0.4390 C.ar    1  UNL1       -0.0204
     17 C          27.4673   24.9536   -0.7845 C.ar    1  UNL1       -0.0042
     18 C          27.3995   24.0061   -1.9453 C.ar    1  UNL1       -0.0003
     19 C          26.5014   22.8063   -1.8826 C.ar    1  UNL1        0.0020
     20 S          24.9756   20.0620   -1.3306 S.2     1  UNL1       -0.0659
     21 C          23.8424   19.1451   -0.9765 C.ar    1  UNL1        0.0575
     22 C          22.9395   19.8708   -0.0236 C.ar    1  UNL1        0.1064
     23 N          23.5146   21.2361    0.2113 N.ar    1  UNL1       -0.2368
     24 C          24.7730   21.3543   -0.5965 C.ar    1  UNL1        0.1107
     25 C          25.4627   29.2734    0.6432 C.3     1  UNL1        0.1337
     26 N          24.6236   29.1814   -0.5967 N.4     1  UNL1        0.2554
     27 H          23.8150   28.5601   -0.6204 H       1  UNL1        0.2037
     28 H          24.0530   29.1189   -1.4399 H       1  UNL1        0.2037
     29 C          24.9737   30.0031   -1.8019 C.3     1  UNL1        0.0835
     30 C          26.1496   29.6239   -2.6524 C.3     1  UNL1        0.0998
     31 C          26.4997   30.4455   -3.8575 C.3     1  UNL1        0.1405
     32 O          25.6738   31.6464   -4.2121 O.3     1  UNL1       -0.4673
     33 C          24.4979   32.0257   -3.3616 C.ar    1  UNL1        0.2258
     34 N          23.6721   33.2266   -3.7163 N.ar    1  UNL1       -0.2106
     35 C          22.4961   33.6059   -2.8657 C.ar    1  UNL1        0.0977
     36 C          22.1461   32.7842   -1.6606 C.ar    1  UNL1       -0.0029
     37 C          22.9719   31.5833   -1.3060 C.ar    1  UNL1        0.0031
     38 C          24.1478   31.2040   -2.1565 C.ar    1  UNL1        0.0794
     39 C          27.5254   29.3515   -3.8222 C.3     1  UNL1        0.0404
     40 C          28.1627   29.9091   -5.0604 C.3     1  UNL1        0.0072
     41 C          27.1370   31.0030   -5.0957 C.3     1  UNL1        0.0404
     42 C          20.9702   33.1635   -0.8101 C.3     1  UNL1        0.0279
     43 C          21.0680   33.0815    0.6845 C.3     1  UNL1        0.0041
     44 C          19.9220   32.1139    0.7065 C.3     1  UNL1        0.0003
     45 C          22.2141   34.0491    0.6626 C.3     1  UNL1        0.0003
     46 C          21.1659   32.9994    2.1791 C.3     1  UNL1        0.0003
@<TRIPOS>UNITY_ATOM_ATTR
26 1
charge 1
@<TRIPOS>BOND
     1    20    21   ar
     2    21    22   ar
     3    22    23   ar
     4    23    24   ar
     5    24    14    1
     6    14    15   ar
     7    15    16   ar
     8    16    17   ar
     9    17    18   ar
    10    18    19   ar
    11    16    13    1
    12     4    13    1
    13     4     5    1
    14     5     6   am
    15     6     7    2
    16     6     9    1
    17     9    11    1
    18    11    12    1
    19     9    10    1
    20     4     1    1
    21     1     2    1
    22     1    25    1
    23    25    26    1
    24    29    26    1
    25    29    30    1
    26    30    31    1
    27    31    32    1
    28    32    33    1
    29    33    34   ar
    30    34    35   ar
    31    35    36   ar
    32    36    37   ar
    33    37    38   ar
    34    36    42    1
    35    42    43    1
    36    43    44    1
    37    43    45    1
    38    43    46    1
    39    31    39    1
    40    39    40    1
    41    40    41    1
    42    24    20   ar
    43    19    14   ar
    44    38    29    1
    45    41    31    1
    46    38    33   ar
    47     5     8    1
    48     2     3    1
    49    26    27    1
    50    26    28    1
@<TRIPOS>MOLECULE
*****
 46 50 0 0 0
SMALL
GASTEIGER

@<TRIPOS>ATOM
      1 C          23.3415   18.5720    1.6112 C.3     1  UNL1        0.1839
      2 O          24.4780   18.7826    2.5671 O.3     1  UNL1       -0.3775
      3 H          24.5986   19.6449    2.9948 H       1  UNL1        0.2106
      4 C          23.1550   17.2386    0.9499 C.3     1  UNL1        0.1087
      5 N          22.9003   16.0174    1.7828 N.am    1  UNL1       -0.3011
      6 C          24.0043   15.0314    2.0254 C.2     1  UNL1        0.2497
      7 O          25.3632   15.2667    1.4352 O.2     1  UNL1       -0.2725
      8 H          22.0085   15.8630    2.1701 H       1  UNL1        0.1495
      9 C          23.7496   13.8102    2.8584 C.3     1  UNL1        0.1909
     10 C          24.8959   12.9439    3.2893 C.3     1  UNL1        0.0420
     11 O          22.3488   13.4553    3.2603 O.3     1  UNL1       -0.3444
     12 C          21.5176   12.5697    2.3800 C.3     1  UNL1        0.1747
     13 C          23.2233   17.1265   -0.5444 C.3     1  UNL1        0.0486
     14 C          26.8933   17.3424   -2.0392 C.ar    1  UNL1        0.0235
     15 C          25.6906   16.8312   -1.3029 C.ar    1  UNL1       -0.0022
     16 C          24.4260   17.6377   -1.2807 C.ar    1  UNL1       -0.0204
     17 C          24.3642   18.9554   -1.9947 C.ar    1  UNL1       -0.0042
     18 C          25.5669   19.4666   -2.7310 C.ar    1  UNL1       -0.0003
     19 C          26.8314   18.6601   -2.7533 C.ar    1  UNL1        0.0020
     20 S          29.4887   16.9970   -2.5774 S.2     1  UNL1       -0.0659
     21 C          30.4669   15.8728   -2.4065 C.ar    1  UNL1        0.0575
     22 C          29.7406   14.7169   -1.7849 C.ar    1  UNL1        0.1064
     23 N          28.3135   15.1267   -1.5717 N.ar    1  UNL1       -0.2368
     24 C          28.1578   16.5359   -2.0615 C.ar    1  UNL1        0.1107
     25 C          22.3913   19.6947    1.3165 C.3     1  UNL1        0.1337
     26 N          20.9169   19.5003    1.5120 N.4     1  UNL1        0.2554
     27 H          20.5167   19.5433    2.4493 H       1  UNL1        0.2037
     28 H          19.9143   19.3682    1.6450 H       1  UNL1        0.2037
     29 C          20.0310   19.2428    0.3293 C.3     1  UNL1        0.0835
     30 C          19.8507   17.8443   -0.1823 C.3     1  UNL1        0.0998
     31 C          18.9648   17.5866   -1.3650 C.3     1  UNL1        0.1405
     32 O          18.2593   18.7275   -2.0362 O.3     1  UNL1       -0.4673
     33 C          18.4397   20.1261   -1.5246 C.ar    1  UNL1        0.2258
     34 N          17.7341   21.2670   -2.1959 N.ar    1  UNL1       -0.2106
     35 C          17.9144   22.6655   -1.6844 C.ar    1  UNL1        0.0977
     36 C          18.8003   22.9231   -0.5016 C.ar    1  UNL1       -0.0029
     37 C          19.5059   21.7822    0.1696 C.ar    1  UNL1        0.0031
     38 C          19.3255   20.3837   -0.3419 C.ar    1  UNL1        0.0794
     39 C          19.4870   16.2371   -0.9698 C.3     1  UNL1        0.0404
     40 C          18.7098   15.6088   -2.0884 C.3     1  UNL1        0.0072
     41 C          18.1876   16.9583   -2.4836 C.3     1  UNL1        0.0404
     42 C          18.9807   24.3216    0.0099 C.3     1  UNL1        0.0279
     43 C          18.9097   24.5964    1.4828 C.3     1  UNL1        0.0041
     44 C          17.4912   24.1093    1.5053 C.3     1  UNL1        0.0003
     45 C          20.3283   25.0836    1.4603 C.3     1  UNL1        0.0003
     46 C          18.8386   24.8712    2.9557 C.3     1  UNL1        0.0003
@<TRIPOS>UNITY_ATOM_ATTR
26 1
charge 1
@<TRIPOS>BOND
     1    20    21   ar
     2    21    22   ar
     3    22    23   ar
     4    23    24   ar
     5    24    14    1
     6    14    15   ar
     7    15    16   ar
     8    16    17   ar
     9    17    18   ar
    10    18    19   ar
    11    16    13    1
    12     4    13    1
    13     4     5    1
    14     5     6   am
    15     6     7    2
    16     6     9    1
    17     9    11    1
    18    11    12    1
    19     9    10    1
    20     4     1    1
    21     1     2    1
    22     1    25    1
    23    25    26    1
    24    29    26    1
    25    29    30    1
    26    30    31    1
    27    31    32    1
    28    32    33    1
    29    33    34   ar
    30    34    35   ar
    31    35    36   ar
    32    36    37   ar
    33    37    38   ar
    34    36    42    1
    35    42    43    1
    36    43    44    1
    37    43    45    1
    38    43    46    1
    39    31    39    1
    40    39    40    1
    41    40    41    1
    42    24    20   ar
    43    19    14   ar
    44    38    29    1
    45    41    31    1
    46    38    33   ar
    47     5     8    1
    48     2     3    1
    49    26    27    1
    50    26    28    1
@<TRIPOS>MOLECULE
*****
 65 68 0 0 0
SMALL
GASTEIGER

@<TRIPOS>ATOM
      1 C          22.5795   14.5223    0.2541 C.3     1  UNL1        0.1284
      2 C          20.2779   15.5245   -0.4155 C.2     1  UNL1        0.2460
      3 O          19.5919   14.5755    0.5219 O.2     1  UNL1       -0.2701
      4 N          21.7717   15.4979   -0.5494 N.am    1  UNL1       -0.2979
      5 H          22.2219   16.1208   -1.1647 H       1  UNL1        0.1498
      6 C          17.6999   16.9776   -3.0598 C.ar    1  UNL1        0.0688
      7 C          17.8545   18.4512   -2.8262 C.ar    1  UNL1        0.0206
      8 C          18.8169   18.9492   -1.7890 C.ar    1  UNL1        0.0548
      9 C          19.6247   17.9737   -0.9854 C.ar    1  UNL1        0.0091
     10 C          19.4701   16.5001   -1.2191 C.ar    1  UNL1        0.0548
     11 C          18.5077   16.0021   -2.2563 C.ar    1  UNL1        0.0206
     12 C          18.9714   20.4229   -1.5554 C.2     1  UNL1        0.2461
     13 O          20.1283   20.9375   -0.7511 O.2     1  UNL1       -0.2701
     14 N          17.9691   21.3819   -2.1260 N.am    1  UNL1       -0.2987
     15 H          17.2098   21.0441   -2.6539 H       1  UNL1        0.1500
     16 C          18.1236   22.8555   -1.8924 C.3     1  UNL1        0.0944
     17 C          18.2937   23.7856   -3.0568 C.3     1  UNL1        0.0262
     18 C          18.1080   23.3989   -0.4944 C.ar    1  UNL1       -0.0045
     19 C          18.9201   24.6128   -0.1525 C.ar    1  UNL1       -0.0027
     20 C          18.9045   25.1562    1.2455 C.ar    1  UNL1       -0.0003
     21 C          18.0768   24.4858    2.3016 C.ar    1  UNL1       -0.0000
     22 C          17.2648   23.2719    1.9597 C.ar    1  UNL1       -0.0003
     23 C          17.2804   22.7284    0.5617 C.ar    1  UNL1       -0.0027
     24 N          16.7375   16.4796   -4.0970 N.pl3   1  UNL1       -0.1925
     25 C          16.0722   17.4481   -5.0294 C.3     1  UNL1        0.1388
     26 S          16.4405   15.0130   -4.2019 S.O2    1  UNL1        0.0588
     27 O          15.3219   15.1690   -3.2149 O.2     1  UNL1       -0.1542
     28 O          17.5591   14.8571   -5.1889 O.2     1  UNL1       -0.1542
     29 C          16.1434   13.5464   -4.3067 C.3     1  UNL1        0.1999
     30 C          23.1052   14.9153    1.6029 C.3     1  UNL1        0.1313
     31 O          22.3090   14.6087    2.8367 O.3     1  UNL1       -0.3827
     32 H          22.6489   14.8628    3.7089 H       1  UNL1        0.2104
     33 C          24.4270   15.6150    1.7180 C.3     1  UNL1        0.0401
     34 C          24.6125   16.9727    1.1080 C.3     1  UNL1        0.0790
     35 C          23.9355   18.1661    1.7142 C.3     1  UNL1        0.0096
     36 C          25.4749   17.1371   -0.1081 C.2     1  UNL1        0.2224
     37 O          25.6527   18.4934   -0.7239 O.2     1  UNL1       -0.2751
     38 N          26.1598   15.9453   -0.7086 N.am    1  UNL1       -0.2984
     39 H          26.0431   15.0552   -0.3046 H       1  UNL1        0.1498
     40 C          27.0223   16.1098   -1.9249 C.3     1  UNL1        0.1485
     41 C          28.3886   16.7157   -1.7990 C.2     1  UNL1        0.2406
     42 O          28.8147   17.3425   -0.5046 O.2     1  UNL1       -0.2733
     43 N          29.3289   16.6948   -2.9675 N.am    1  UNL1       -0.2991
     44 H          29.0493   16.2834   -3.8171 H       1  UNL1        0.1498
     45 C          30.6953   17.3007   -2.8416 C.3     1  UNL1        0.1164
     46 C          31.8835   16.6004   -3.4312 C.ar    1  UNL1       -0.0026
     47 C          31.8087   16.0353   -4.8187 C.ar    1  UNL1       -0.0026
     48 C          32.9970   15.3349   -5.4083 C.ar    1  UNL1       -0.0003
     49 C          34.2600   15.1997   -4.6104 C.ar    1  UNL1       -0.0000
     50 C          34.3347   15.7648   -3.2229 C.ar    1  UNL1       -0.0003
     51 C          33.1465   16.4651   -2.6333 C.ar    1  UNL1       -0.0026
     52 C          26.5184   15.6683   -3.2669 C.3     1  UNL1        0.0269
     53 C          26.7098   14.2480   -3.7098 C.3     1  UNL1        0.0022
     54 C          25.8230   16.6471   -4.1661 C.3     1  UNL1        0.0022
     55 C          22.8616   13.1537   -0.2911 C.3     1  UNL1        0.1645
     56 O          21.7270   12.2488   -0.6702 O.3     1  UNL1       -0.3472
     57 C          21.7056   10.8293   -0.1858 C.3     1  UNL1        0.1688
     58 C          22.0160   10.5218    1.2491 C.ar    1  UNL1        0.0117
     59 C          23.3816   10.8090    1.7992 C.ar    1  UNL1        0.0279
     60 C          23.6921   10.5015    3.2342 C.ar    1  UNL1        0.1421
     61 F          25.0577   10.7887    3.7843 F       1  UNL1       -0.2041
     62 C          22.6369    9.9067    4.1190 C.ar    1  UNL1        0.0592
     63 C          21.2713    9.6195    3.5689 C.ar    1  UNL1        0.1421
     64 F          20.2161    9.0247    4.4537 F       1  UNL1       -0.2041
     65 C          20.9609    9.9270    2.1340 C.ar    1  UNL1        0.0279
@<TRIPOS>BOND
     1    26    27    2
     2    26    28    2
     3    26    24    1
     4    24    25    1
     5    24     6    1
     6     6     7   ar
     7     7     8   ar
     8     8     9   ar
     9     9    10   ar
    10    10    11   ar
    11    10     2    1
    12     2     3    2
    13     2     4   am
    14     4     1    1
    15     1    30    1
    16    30    31    1
    17    30    33    1
    18    33    34    1
    19    34    36    1
    20    36    37    2
    21    36    38   am
    22    40    38    1
    23    40    52    1
    24    52    53    1
    25    52    54    1
    26    40    41    1
    27    41    42    2
    28    41    43   am
    29    43    45    1
    30    45    46    1
    31    46    47   ar
    32    47    48   ar
    33    48    49   ar
    34    49    50   ar
    35    50    51   ar
    36    34    35    1
    37     1    55    1
    38    55    56    1
    39    56    57    1
    40    57    58    1
    41    58    59   ar
    42    59    60   ar
    43    60    61    1
    44    60    62   ar
    45    62    63   ar
    46    63    64    1
    47    63    65   ar
    48     8    12    1
    49    12    13    2
    50    12    14   am
    51    14    16    1
    52    16    17    1
    53    16    18    1
    54    18    19   ar
    55    19    20   ar
    56    20    21   ar
    57    21    22   ar
    58    22    23   ar
    59    26    29    1
    60    11     6   ar
    61    51    46   ar
    62    65    58   ar
    63    23    18   ar
    64     4     5    1
    65    31    32    1
    66    38    39    1
    67    43    44    1
    68    14    15    1
@<TRIPOS>MOLECULE
*****
 65 68 0 0 0
SMALL
GASTEIGER

@<TRIPOS>ATOM
      1 C          22.6540   14.4985    0.2447 C.3     1  UNL1        0.1284
      2 C          20.3588   15.6068   -0.2591 C.2     1  UNL1        0.2460
      3 O          19.7342   14.8193    0.8544 O.2     1  UNL1       -0.2701
      4 N          21.8187   15.4464   -0.5639 N.am    1  UNL1       -0.2979
      5 H          22.2287   15.9633   -1.2947 H       1  UNL1        0.1498
      6 C          17.6988   16.9698   -2.8699 C.ar    1  UNL1        0.0688
      7 C          17.8529   18.4504   -2.6849 C.ar    1  UNL1        0.0206
      8 C          18.8423   18.9831   -1.6912 C.ar    1  UNL1        0.0548
      9 C          19.6776   18.0352   -0.8826 C.ar    1  UNL1        0.0091
     10 C          19.5235   16.5547   -1.0677 C.ar    1  UNL1        0.0548
     11 C          18.5341   16.0220   -2.0613 C.ar    1  UNL1        0.0206
     12 C          18.9964   20.4637   -1.5062 C.2     1  UNL1        0.2461
     13 O          20.1906   21.0085   -0.7804 O.2     1  UNL1       -0.2701
     14 N          17.9562   21.3993   -2.0471 N.am    1  UNL1       -0.2987
     15 H          17.1723   21.0417   -2.5234 H       1  UNL1        0.1500
     16 C          18.1102   22.8798   -1.8621 C.3     1  UNL1        0.0944
     17 C          18.2807   23.7712   -3.0564 C.3     1  UNL1        0.0262
     18 C          18.0938   23.4691   -0.4827 C.ar    1  UNL1       -0.0045
     19 C          18.9140   24.6873   -0.1777 C.ar    1  UNL1       -0.0027
     20 C          18.8975   25.2765    1.2016 C.ar    1  UNL1       -0.0003
     21 C          18.0608   24.6475    2.2759 C.ar    1  UNL1       -0.0000
     22 C          17.2405   23.4293    1.9709 C.ar    1  UNL1       -0.0003
     23 C          17.2570   22.8401    0.5916 C.ar    1  UNL1       -0.0027
     24 N          16.7093   16.4372   -3.8635 N.pl3   1  UNL1       -0.1925
     25 C          15.4819   15.7180   -3.3880 C.3     1  UNL1        0.1388
     26 S          16.9474   16.6236   -5.3327 S.O2    1  UNL1        0.0588
     27 O          15.7944   17.5809   -5.3980 O.2     1  UNL1       -0.1542
     28 O          18.1003   15.6663   -5.2674 O.2     1  UNL1       -0.1542
     29 C          17.1854   16.8101   -6.8020 C.3     1  UNL1        0.1999
     30 C          23.1734   14.9158    1.5886 C.3     1  UNL1        0.1313
     31 O          22.3513   14.6714    2.8193 O.3     1  UNL1       -0.3827
     32 H          22.6871   14.9412    3.6884 H       1  UNL1        0.2104
     33 C          24.5147   15.5774    1.7019 C.3     1  UNL1        0.0401
     34 C          24.7284   16.9440    1.1215 C.3     1  UNL1        0.0790
     35 C          24.1142   18.1432    1.7806 C.3     1  UNL1        0.0096
     36 C          25.5563   17.1113   -0.1181 C.2     1  UNL1        0.2224
     37 O          25.9358   18.4847   -0.5869 O.2     1  UNL1       -0.2751
     38 N          26.0047   15.9051   -0.8889 N.am    1  UNL1       -0.2984
     39 H          25.7557   15.0037   -0.5813 H       1  UNL1        0.1498
     40 C          26.8326   16.0725   -2.1286 C.3     1  UNL1        0.1485
     41 C          26.1793   16.4710   -3.4186 C.2     1  UNL1        0.2406
     42 O          25.8556   15.4295   -4.4485 O.2     1  UNL1       -0.2733
     43 N          25.8498   17.9111   -3.6790 N.am    1  UNL1       -0.2991
     44 H          26.0623   18.5946   -3.0031 H       1  UNL1        0.1498
     45 C          25.1965   18.3096   -4.9690 C.3     1  UNL1        0.1164
     46 C          23.7006   18.3290   -5.0775 C.ar    1  UNL1       -0.0026
     47 C          22.8582   18.2983   -3.8367 C.ar    1  UNL1       -0.0026
     48 C          21.3622   18.3177   -3.9452 C.ar    1  UNL1       -0.0003
     49 C          20.7086   18.3680   -5.2944 C.ar    1  UNL1       -0.0000
     50 C          21.5510   18.3987   -6.5351 C.ar    1  UNL1       -0.0003
     51 C          23.0469   18.3793   -6.4267 C.ar    1  UNL1       -0.0026
     52 C          28.3139   15.8413   -2.0780 C.3     1  UNL1        0.0269
     53 C          29.2440   16.9903   -1.8241 C.3     1  UNL1        0.0022
     54 C          28.8649   14.4610   -2.2815 C.3     1  UNL1        0.0022
     55 C          22.9700   13.1334   -0.2907 C.3     1  UNL1        0.1645
     56 O          21.8599   12.2221   -0.7234 O.3     1  UNL1       -0.3472
     57 C          21.8760   10.7771   -0.3213 C.3     1  UNL1        0.1688
     58 C          22.0245   10.4022    1.1235 C.ar    1  UNL1        0.0117
     59 C          20.8204    9.9962    1.9205 C.ar    1  UNL1        0.0279
     60 C          20.9689    9.6213    3.3653 C.ar    1  UNL1        0.1421
     61 F          19.7648    9.2153    4.1623 F       1  UNL1       -0.2041
     62 C          22.3214    9.6524    4.0131 C.ar    1  UNL1        0.0592
     63 C          23.5256   10.0584    3.2160 C.ar    1  UNL1        0.1421
     64 F          24.8781   10.0896    3.8637 F       1  UNL1       -0.2041
     65 C          23.3771   10.4333    1.7712 C.ar    1  UNL1        0.0279
@<TRIPOS>BOND
     1    26    27    2
     2    26    28    2
     3    26    24    1
     4    24    25    1
     5    24     6    1
     6     6     7   ar
     7     7     8   ar
     8     8     9   ar
     9     9    10   ar
    10    10    11   ar
    11    10     2    1
    12     2     3    2
    13     2     4   am
    14     4     1    1
    15     1    30    1
    16    30    31    1
    17    30    33    1
    18    33    34    1
    19    34    36    1
    20    36    37    2
    21    36    38   am
    22    40    38    1
    23    40    52    1
    24    52    53    1
    25    52    54    1
    26    40    41    1
    27    41    42    2
    28    41    43   am
    29    43    45    1
    30    45    46    1
    31    46    47   ar
    32    47    48   ar
    33    48    49   ar
    34    49    50   ar
    35    50    51   ar
    36    34    35    1
    37     1    55    1
    38    55    56    1
    39    56    57    1
    40    57    58    1
    41    58    59   ar
    42    59    60   ar
    43    60    61    1
    44    60    62   ar
    45    62    63   ar
    46    63    64    1
    47    63    65   ar
    48     8    12    1
    49    12    13    2
    50    12    14   am
    51    14    16    1
    52    16    17    1
    53    16    18    1
    54    18    19   ar
    55    19    20   ar
    56    20    21   ar
    57    21    22   ar
    58    22    23   ar
    59    26    29    1
    60    11     6   ar
    61    51    46   ar
    62    65    58   ar
    63    23    18   ar
    64     4     5    1
    65    31    32    1
    66    38    39    1
    67    43    44    1
    68    14    15    1
@<TRIPOS>MOLECULE
*****
 65 68 0 0 0
SMALL
GASTEIGER

@<TRIPOS>ATOM
      1 C          22.4304   14.3019    0.2940 C.3     1  UNL1        0.1284
      2 C          20.1704   15.4384   -0.2982 C.2     1  UNL1        0.2460
      3 O          19.5005   14.6851    0.8126 O.2     1  UNL1       -0.2701
      4 N          21.6353   15.2468   -0.5575 N.am    1  UNL1       -0.2979
      5 H          22.0749   15.7413   -1.2865 H       1  UNL1        0.1498
      6 C          17.5681   16.7936   -2.9706 C.ar    1  UNL1        0.0688
      7 C          17.7850   18.2731   -2.8525 C.ar    1  UNL1        0.0206
      8 C          18.7970   18.8077   -1.8830 C.ar    1  UNL1        0.0548
      9 C          19.5921   17.8628   -1.0315 C.ar    1  UNL1        0.0091
     10 C          19.3752   16.3833   -1.1497 C.ar    1  UNL1        0.0548
     11 C          18.3633   15.8487   -2.1192 C.ar    1  UNL1        0.0206
     12 C          19.0139   20.2873   -1.7649 C.2     1  UNL1        0.2461
     13 O          20.3804   20.8227   -1.4555 O.2     1  UNL1       -0.2701
     14 N          17.8641   21.2314   -1.9562 N.am    1  UNL1       -0.2987
     15 H          16.9671   20.8800   -2.1592 H       1  UNL1        0.1500
     16 C          18.0808   22.7109   -1.8381 C.3     1  UNL1        0.0944
     17 C          18.3124   23.5357   -3.0694 C.3     1  UNL1        0.0262
     18 C          18.0661   23.3658   -0.4886 C.ar    1  UNL1       -0.0045
     19 C          18.9197   24.5720   -0.2309 C.ar    1  UNL1       -0.0027
     20 C          18.9049   25.2268    1.1185 C.ar    1  UNL1       -0.0003
     21 C          18.0366   24.6754    2.2102 C.ar    1  UNL1       -0.0000
     22 C          17.1830   23.4692    1.9526 C.ar    1  UNL1       -0.0003
     23 C          17.1978   22.8144    0.6032 C.ar    1  UNL1       -0.0027
     24 N          16.5562   16.2589   -3.9402 N.pl3   1  UNL1       -0.1925
     25 C          15.3436   15.5344   -3.4354 C.3     1  UNL1        0.1388
     26 S          16.7567   16.4488   -5.4145 S.O2    1  UNL1        0.0588
     27 O          17.9068   15.4865   -5.3820 O.2     1  UNL1       -0.1542
     28 O          15.6065   17.4110   -5.4470 O.2     1  UNL1       -0.1542
     29 C          16.9573   16.6386   -6.8889 C.3     1  UNL1        0.1999
     30 C          22.8953   14.7287    1.6547 C.3     1  UNL1        0.1313
     31 O          21.9762   14.6061    2.8339 O.3     1  UNL1       -0.3827
     32 H          22.2769   14.8821    3.7139 H       1  UNL1        0.2104
     33 C          24.2792   15.2781    1.8364 C.3     1  UNL1        0.0401
     34 C          24.6870   16.5339    1.1247 C.3     1  UNL1        0.0790
     35 C          25.6815   16.4714    0.0035 C.3     1  UNL1        0.0096
     36 C          24.1003   17.8523    1.5341 C.2     1  UNL1        0.2224
     37 O          24.8041   18.7036    2.5491 O.2     1  UNL1       -0.2751
     38 N          22.8099   18.3194    0.9287 N.am    1  UNL1       -0.2984
     39 H          22.3479   17.7606    0.2626 H       1  UNL1        0.1498
     40 C          22.2232   19.6378    1.3382 C.3     1  UNL1        0.1485
     41 C          22.9081   20.9155    0.9531 C.2     1  UNL1        0.2406
     42 O          22.2774   22.2348    1.2873 O.2     1  UNL1       -0.2733
     43 N          24.2237   20.8739    0.2337 N.am    1  UNL1       -0.2991
     44 H          24.6376   20.0080    0.0143 H       1  UNL1        0.1498
     45 C          24.9086   22.1516   -0.1515 C.3     1  UNL1        0.1164
     46 C          25.8025   22.1900   -1.3553 C.ar    1  UNL1       -0.0026
     47 C          26.7853   23.3105   -1.5244 C.ar    1  UNL1       -0.0026
     48 C          27.6793   23.3488   -2.7283 C.ar    1  UNL1       -0.0003
     49 C          27.5904   22.2666   -3.7631 C.ar    1  UNL1       -0.0000
     50 C          26.6077   21.1460   -3.5941 C.ar    1  UNL1       -0.0003
     51 C          25.7137   21.1077   -2.3902 C.ar    1  UNL1       -0.0026
     52 C          20.9516   19.6784    2.1329 C.3     1  UNL1        0.0269
     53 C          20.7698   18.7598    3.3046 C.3     1  UNL1        0.0022
     54 C          19.8618   20.6378    1.7557 C.3     1  UNL1        0.0022
     55 C          22.7607   12.9302   -0.2154 C.3     1  UNL1        0.1645
     56 O          21.8790   12.2778   -1.2386 O.3     1  UNL1       -0.3472
     57 C          20.5335   11.7474   -0.8406 C.3     1  UNL1        0.1688
     58 C          19.3473   11.9663   -1.7321 C.ar    1  UNL1        0.0117
     59 C          19.5245   12.0003   -3.2212 C.ar    1  UNL1        0.0279
     60 C          18.3382   12.2192   -4.1129 C.ar    1  UNL1        0.1421
     61 F          18.5154   12.2531   -5.6020 F       1  UNL1       -0.2041
     62 C          16.9749   12.4041   -3.5154 C.ar    1  UNL1        0.0592
     63 C          16.7977   12.3702   -2.0262 C.ar    1  UNL1        0.1421
     64 F          15.4344   12.5551   -1.4287 F       1  UNL1       -0.2041
     65 C          17.9839   12.1513   -1.1346 C.ar    1  UNL1        0.0279
@<TRIPOS>BOND
     1    26    27    2
     2    26    28    2
     3    26    24    1
     4    24    25    1
     5    24     6    1
     6     6     7   ar
     7     7     8   ar
     8     8     9   ar
     9     9    10   ar
    10    10    11   ar
    11    10     2    1
    12     2     3    2
    13     2     4   am
    14     4     1    1
    15     1    30    1
    16    30    31    1
    17    30    33    1
    18    33    34    1
    19    34    36    1
    20    36    37    2
    21    36    38   am
    22    40    38    1
    23    40    52    1
    24    52    53    1
    25    52    54    1
    26    40    41    1
    27    41    42    2
    28    41    43   am
    29    43    45    1
    30    45    46    1
    31    46    47   ar
    32    47    48   ar
    33    48    49   ar
    34    49    50   ar
    35    50    51   ar
    36    34    35    1
    37     1    55    1
    38    55    56    1
    39    56    57    1
    40    57    58    1
    41    58    59   ar
    42    59    60   ar
    43    60    61    1
    44    60    62   ar
    45    62    63   ar
    46    63    64    1
    47    63    65   ar
    48     8    12    1
    49    12    13    2
    50    12    14   am
    51    14    16    1
    52    16    17    1
    53    16    18    1
    54    18    19   ar
    55    19    20   ar
    56    20    21   ar
    57    21    22   ar
    58    22    23   ar
    59    26    29    1
    60    11     6   ar
    61    51    46   ar
    62    65    58   ar
    63    23    18   ar
    64     4     5    1
    65    31    32    1
    66    38    39    1
    67    43    44    1
    68    14    15    1
@<TRIPOS>MOLECULE
*****
 65 68 0 0 0
SMALL
GASTEIGER

@<TRIPOS>ATOM
      1 C          21.2635   19.3793    1.0184 C.3     1  UNL1        0.1284
      2 C          19.7729   18.0861   -0.6716 C.2     1  UNL1        0.2460
      3 O          19.6565   19.3216   -1.5143 O.2     1  UNL1       -0.2701
      4 N          20.5764   18.1150    0.5947 N.am    1  UNL1       -0.2979
      5 H          20.6528   17.3041    1.1478 H       1  UNL1        0.1498
      6 C          18.6978   14.2685   -0.8126 C.ar    1  UNL1        0.0688
      7 C          17.7115   14.2933   -1.9424 C.ar    1  UNL1        0.0206
      8 C          17.4124   15.5824   -2.6487 C.ar    1  UNL1        0.0548
      9 C          18.0995   16.8467   -2.2251 C.ar    1  UNL1        0.0091
     10 C          19.0857   16.8218   -1.0952 C.ar    1  UNL1        0.0548
     11 C          19.3849   15.5328   -0.3890 C.ar    1  UNL1        0.0206
     12 C          16.4260   15.6072   -3.7786 C.2     1  UNL1        0.2461
     13 O          15.0408   16.1367   -3.5535 O.2     1  UNL1       -0.2701
     14 N          16.8250   15.1024   -5.1336 N.am    1  UNL1       -0.2987
     15 H          17.7342   14.7548   -5.2813 H       1  UNL1        0.1500
     16 C          15.8387   15.1271   -6.2634 C.3     1  UNL1        0.0944
     17 C          15.7777   16.3130   -7.1799 C.3     1  UNL1        0.0262
     18 C          14.9134   13.9659   -6.4769 C.ar    1  UNL1       -0.0045
     19 C          14.4553   13.1470   -5.3067 C.ar    1  UNL1       -0.0027
     20 C          13.5300   11.9859   -5.5202 C.ar    1  UNL1       -0.0003
     21 C          13.0630   11.6436   -6.9040 C.ar    1  UNL1       -0.0000
     22 C          13.5212   12.4625   -8.0742 C.ar    1  UNL1       -0.0003
     23 C          14.4464   13.6236   -7.8607 C.ar    1  UNL1       -0.0027
     24 N          18.9970   12.9794   -0.1064 N.pl3   1  UNL1       -0.1925
     25 C          19.5464   12.9988    1.2892 C.3     1  UNL1        0.1388
     26 S          18.7468   11.6710   -0.7957 S.O2    1  UNL1        0.0588
     27 O          17.4735   11.5059   -0.0203 O.2     1  UNL1       -0.1542
     28 O          20.0202   11.8360   -1.5712 O.2     1  UNL1       -0.1542
     29 C          18.4966   10.3624   -1.4851 C.3     1  UNL1        0.1999
     30 C          22.6710   19.6520    0.5770 C.3     1  UNL1        0.1313
     31 O          23.8213   19.2722    1.4617 O.3     1  UNL1       -0.3827
     32 H          24.7315   19.4486    1.1763 H       1  UNL1        0.2104
     33 C          22.9281   20.3046   -0.7489 C.3     1  UNL1        0.0401
     34 C          24.3129   20.3118   -1.3253 C.3     1  UNL1        0.0790
     35 C          24.7642   19.1852   -2.2068 C.3     1  UNL1        0.0096
     36 C          25.2464   21.4455   -1.0202 C.2     1  UNL1        0.2224
     37 O          25.7042   21.6817    0.3886 O.2     1  UNL1       -0.2751
     38 N          25.7220   22.3431   -2.1238 N.am    1  UNL1       -0.2984
     39 H          25.4216   22.1881   -3.0485 H       1  UNL1        0.1498
     40 C          26.6556   23.4769   -1.8187 C.3     1  UNL1        0.1485
     41 C          26.2236   24.5760   -0.8939 C.2     1  UNL1        0.2406
     42 O          25.5923   25.8184   -1.4488 O.2     1  UNL1       -0.2733
     43 N          26.4228   24.4327    0.5860 N.am    1  UNL1       -0.2991
     44 H          26.8371   23.6173    0.9502 H       1  UNL1        0.1498
     45 C          25.9908   25.5317    1.5108 C.3     1  UNL1        0.1164
     46 C          24.5389   25.8923    1.6205 C.ar    1  UNL1       -0.0026
     47 C          23.5217   24.8285    1.9099 C.ar    1  UNL1       -0.0026
     48 C          22.0698   25.1891    2.0195 C.ar    1  UNL1       -0.0003
     49 C          21.6351   26.6134    1.8398 C.ar    1  UNL1       -0.0000
     50 C          22.6523   27.6772    1.5504 C.ar    1  UNL1       -0.0003
     51 C          24.1042   27.3166    1.4407 C.ar    1  UNL1       -0.0026
     52 C          28.0211   23.5116   -2.4384 C.3     1  UNL1        0.0269
     53 C          29.0997   24.3578   -1.8297 C.3     1  UNL1        0.0022
     54 C          28.3081   22.7000   -3.6669 C.3     1  UNL1        0.0022
     55 C          20.5433   20.3707    1.8833 C.3     1  UNL1        0.1645
     56 O          19.1555   20.0737    2.3687 O.3     1  UNL1       -0.3472
     57 C          17.9934   20.8676    1.8496 C.3     1  UNL1        0.1688
     58 C          18.2216   22.2163    1.2342 C.ar    1  UNL1        0.0117
     59 C          18.2408   23.4417    2.0990 C.ar    1  UNL1        0.0279
     60 C          18.4691   24.7906    1.4835 C.ar    1  UNL1        0.1421
     61 F          18.4883   26.0160    2.3483 F       1  UNL1       -0.2041
     62 C          18.6780   24.9139    0.0033 C.ar    1  UNL1        0.0592
     63 C          18.6587   23.6883   -0.8615 C.ar    1  UNL1        0.1421
     64 F          18.8677   23.8116   -2.3418 F       1  UNL1       -0.2041
     65 C          18.4305   22.3396   -0.2461 C.ar    1  UNL1        0.0279
@<TRIPOS>BOND
     1    26    27    2
     2    26    28    2
     3    26    24    1
     4    24    25    1
     5    24     6    1
     6     6     7   ar
     7     7     8   ar
     8     8     9   ar
     9     9    10   ar
    10    10    11   ar
    11    10     2    1
    12     2     3    2
    13     2     4   am
    14     4     1    1
    15     1    30    1
    16    30    31    1
    17    30    33    1
    18    33    34    1
    19    34    36    1
    20    36    37    2
    21    36    38   am
    22    40    38    1
    23    40    52    1
    24    52    53    1
    25    52    54    1
    26    40    41    1
    27    41    42    2
    28    41    43   am
    29    43    45    1
    30    45    46    1
    31    46    47   ar
    32    47    48   ar
    33    48    49   ar
    34    49    50   ar
    35    50    51   ar
    36    34    35    1
    37     1    55    1
    38    55    56    1
    39    56    57    1
    40    57    58    1
    41    58    59   ar
    42    59    60   ar
    43    60    61    1
    44    60    62   ar
    45    62    63   ar
    46    63    64    1
    47    63    65   ar
    48     8    12    1
    49    12    13    2
    50    12    14   am
    51    14    16    1
    52    16    17    1
    53    16    18    1
    54    18    19   ar
    55    19    20   ar
    56    20    21   ar
    57    21    22   ar
    58    22    23   ar
    59    26    29    1
    60    11     6   ar
    61    51    46   ar
    62    65    58   ar
    63    23    18   ar
    64     4     5    1
    65    31    32    1
    66    38    39    1
    67    43    44    1
    68    14    15    1
@<TRIPOS>MOLECULE
*****
 65 68 0 0 0
SMALL
GASTEIGER

@<TRIPOS>ATOM
      1 C          22.7983   17.0111    0.0149 C.3     1  UNL1        0.1284
      2 C          23.5715   18.6842   -1.8162 C.2     1  UNL1        0.2460
      3 O          22.3545   18.3565   -2.6295 O.2     1  UNL1       -0.2701
      4 N          23.7934   18.0115   -0.4940 N.am    1  UNL1       -0.2979
      5 H          24.5922   18.2266    0.0398 H       1  UNL1        0.1498
      6 C          26.1757   20.5084   -4.1912 C.ar    1  UNL1        0.0688
      7 C          26.5567   21.6854   -3.3430 C.ar    1  UNL1        0.0206
      8 C          25.9427   21.8620   -1.9859 C.ar    1  UNL1        0.0548
      9 C          24.9476   20.8616   -1.4769 C.ar    1  UNL1        0.0091
     10 C          24.5666   19.6847   -2.3251 C.ar    1  UNL1        0.0548
     11 C          25.1806   19.5080   -3.6823 C.ar    1  UNL1        0.0206
     12 C          26.3238   23.0391   -1.1377 C.2     1  UNL1        0.2461
     13 O          27.7246   23.5736   -1.1825 O.2     1  UNL1       -0.2701
     14 N          25.3041   23.6815   -0.2447 N.am    1  UNL1       -0.2987
     15 H          24.3847   23.3306   -0.2153 H       1  UNL1        0.1500
     16 C          25.6851   24.8585    0.6035 C.3     1  UNL1        0.0944
     17 C          26.0775   24.6544    2.0368 C.3     1  UNL1        0.0262
     18 C          25.6738   26.2397    0.0183 C.ar    1  UNL1       -0.0045
     19 C          26.8238   27.1696    0.2684 C.ar    1  UNL1       -0.0027
     20 C          26.8125   28.5507   -0.3167 C.ar    1  UNL1       -0.0003
     21 C          25.6511   29.0018   -1.1519 C.ar    1  UNL1       -0.0000
     22 C          24.5010   28.0719   -1.4020 C.ar    1  UNL1       -0.0003
     23 C          24.5124   26.6908   -0.8169 C.ar    1  UNL1       -0.0027
     24 N          26.7897   20.3318   -5.5483 N.pl3   1  UNL1       -0.1925
     25 C          28.2179   20.7259   -5.7824 C.3     1  UNL1        0.1388
     26 S          25.9755   19.7610   -6.6714 S.O2    1  UNL1        0.0588
     27 O          25.2491   21.0662   -6.8080 O.2     1  UNL1       -0.1542
     28 O          26.7020   18.4558   -6.5347 O.2     1  UNL1       -0.1542
     29 C          25.1613   19.1903   -7.7945 C.3     1  UNL1        0.1999
     30 C          21.7705   17.4236    1.0265 C.3     1  UNL1        0.1313
     31 O          21.5199   16.5680    2.2329 O.3     1  UNL1       -0.3827
     32 H          20.8553   16.8347    2.8871 H       1  UNL1        0.2104
     33 C          20.9932   18.6916    0.8319 C.3     1  UNL1        0.0401
     34 C          20.9783   19.7351    1.9093 C.3     1  UNL1        0.0790
     35 C          21.1841   19.3379    3.3410 C.3     1  UNL1        0.0096
     36 C          20.7578   21.1758    1.5550 C.2     1  UNL1        0.2224
     37 O          21.8624   21.9706    0.9238 O.2     1  UNL1       -0.2751
     38 N          19.4326   21.8219    1.8317 N.am    1  UNL1       -0.2984
     39 H          18.7076   21.3003    2.2459 H       1  UNL1        0.1498
     40 C          19.2121   23.2627    1.4774 C.3     1  UNL1        0.1485
     41 C          19.6710   24.3434    2.4109 C.2     1  UNL1        0.2406
     42 O          18.6940   24.9903    3.3474 O.2     1  UNL1       -0.2733
     43 N          21.1069   24.7772    2.4081 N.am    1  UNL1       -0.2991
     44 H          21.7482   24.3526    1.7935 H       1  UNL1        0.1498
     45 C          21.5658   25.8578    3.3416 C.3     1  UNL1        0.1164
     46 C          22.1143   27.1410    2.7916 C.ar    1  UNL1       -0.0026
     47 C          23.5922   27.3965    2.8162 C.ar    1  UNL1       -0.0026
     48 C          24.1407   28.6797    2.2662 C.ar    1  UNL1       -0.0003
     49 C          23.2114   29.7074    1.6916 C.ar    1  UNL1       -0.0000
     50 C          21.7335   29.4519    1.6670 C.ar    1  UNL1       -0.0003
     51 C          21.1850   28.1687    2.2170 C.ar    1  UNL1       -0.0026
     52 C          18.5327   23.6228    0.1894 C.3     1  UNL1        0.0269
     53 C          18.7282   24.9855   -0.4062 C.3     1  UNL1        0.0022
     54 C          17.6579   22.6201   -0.5029 C.3     1  UNL1        0.0022
     55 C          22.8310   15.5983   -0.4878 C.3     1  UNL1        0.1645
     56 O          22.3402   14.4805    0.3838 O.3     1  UNL1       -0.3472
     57 C          23.2220   13.9303    1.4654 C.3     1  UNL1        0.1688
     58 C          22.8300   12.6747    2.1863 C.ar    1  UNL1        0.0117
     59 C          23.8878   11.7603    2.7293 C.ar    1  UNL1        0.0279
     60 C          23.4959   10.5046    3.4503 C.ar    1  UNL1        0.1421
     61 F          24.5538    9.5903    3.9932 F       1  UNL1       -0.2041
     62 C          22.0461   10.1634    3.6282 C.ar    1  UNL1        0.0592
     63 C          20.9883   11.0779    3.0852 C.ar    1  UNL1        0.1421
     64 F          19.5385   10.7366    3.2632 F       1  UNL1       -0.2041
     65 C          21.3802   12.3335    2.3643 C.ar    1  UNL1        0.0279
@<TRIPOS>BOND
     1    26    27    2
     2    26    28    2
     3    26    24    1
     4    24    25    1
     5    24     6    1
     6     6     7   ar
     7     7     8   ar
     8     8     9   ar
     9     9    10   ar
    10    10    11   ar
    11    10     2    1
    12     2     3    2
    13     2     4   am
    14     4     1    1
    15     1    30    1
    16    30    31    1
    17    30    33    1
    18    33    34    1
    19    34    36    1
    20    36    37    2
    21    36    38   am
    22    40    38    1
    23    40    52    1
    24    52    53    1
    25    52    54    1
    26    40    41    1
    27    41    42    2
    28    41    43   am
    29    43    45    1
    30    45    46    1
    31    46    47   ar
    32    47    48   ar
    33    48    49   ar
    34    49    50   ar
    35    50    51   ar
    36    34    35    1
    37     1    55    1
    38    55    56    1
    39    56    57    1
    40    57    58    1
    41    58    59   ar
    42    59    60   ar
    43    60    61    1
    44    60    62   ar
    45    62    63   ar
    46    63    64    1
    47    63    65   ar
    48     8    12    1
    49    12    13    2
    50    12    14   am
    51    14    16    1
    52    16    17    1
    53    16    18    1
    54    18    19   ar
    55    19    20   ar
    56    20    21   ar
    57    21    22   ar
    58    22    23   ar
    59    26    29    1
    60    11     6   ar
    61    51    46   ar
    62    65    58   ar
    63    23    18   ar
    64     4     5    1
    65    31    32    1
    66    38    39    1
    67    43    44    1
    68    14    15    1
@<TRIPOS>MOLECULE
*****
 65 68 0 0 0
SMALL
GASTEIGER

@<TRIPOS>ATOM
      1 C          27.0433   24.0818   -1.2431 C.3     1  UNL1        0.1284
      2 C          29.2040   23.6426   -2.6175 C.2     1  UNL1        0.2460
      3 O          30.0265   23.7915   -1.3719 O.2     1  UNL1       -0.2701
      4 N          27.7124   23.7878   -2.5531 N.am    1  UNL1       -0.2979
      5 H          27.1726   23.6901   -3.3705 H       1  UNL1        0.1498
      6 C          30.7364   24.1505   -6.2429 C.ar    1  UNL1        0.0688
      7 C          31.2112   22.7606   -6.5472 C.ar    1  UNL1        0.0206
      8 C          31.0170   21.6647   -5.5416 C.ar    1  UNL1        0.0548
      9 C          30.3479   21.9587   -4.2317 C.ar    1  UNL1        0.0091
     10 C          29.8731   23.3486   -3.9274 C.ar    1  UNL1        0.0548
     11 C          30.0673   24.4445   -4.9330 C.ar    1  UNL1        0.0206
     12 C          31.4919   20.2748   -5.8459 C.2     1  UNL1        0.2461
     13 O          32.3250   20.0172   -7.0664 O.2     1  UNL1       -0.2701
     14 N          31.1337   19.1424   -4.9298 N.am    1  UNL1       -0.2987
     15 H          30.5869   19.3114   -4.1287 H       1  UNL1        0.1500
     16 C          31.6085   17.7525   -5.2340 C.3     1  UNL1        0.0944
     17 C          30.8894   16.9207   -6.2543 C.3     1  UNL1        0.0262
     18 C          32.8027   17.1943   -4.5181 C.ar    1  UNL1       -0.0045
     19 C          32.6476   16.6053   -3.1473 C.ar    1  UNL1       -0.0027
     20 C          33.8417   16.0471   -2.4314 C.ar    1  UNL1       -0.0003
     21 C          35.1908   16.0779   -3.0862 C.ar    1  UNL1       -0.0000
     22 C          35.3459   16.6669   -4.4570 C.ar    1  UNL1       -0.0003
     23 C          34.1518   17.2251   -5.1729 C.ar    1  UNL1       -0.0027
     24 N          30.9306   25.2465   -7.2485 N.pl3   1  UNL1       -0.1925
     25 C          30.0593   26.4667   -7.2057 C.3     1  UNL1        0.1388
     26 S          31.9961   25.1222   -8.2969 S.O2    1  UNL1        0.0588
     27 O          33.0251   25.5775   -7.3051 O.2     1  UNL1       -0.1542
     28 O          30.9670   24.6668   -9.2887 O.2     1  UNL1       -0.1542
     29 C          33.0617   24.9979   -9.3454 C.3     1  UNL1        0.1999
     30 C          27.4782   25.2630   -0.4273 C.3     1  UNL1        0.1313
     31 O          28.2201   26.3923   -1.0789 O.3     1  UNL1       -0.3827
     32 H          28.5014   27.1562   -0.5513 H       1  UNL1        0.2104
     33 C          27.1713   25.3150    1.0400 C.3     1  UNL1        0.0401
     34 C          26.5410   26.5410    1.6314 C.3     1  UNL1        0.0790
     35 C          27.3486   27.4506    2.5091 C.3     1  UNL1        0.0096
     36 C          25.1029   26.8573    1.3452 C.2     1  UNL1        0.2224
     37 O          24.3933   26.1676    0.2179 O.2     1  UNL1       -0.2751
     38 N          24.3745   27.8632    2.1863 N.am    1  UNL1       -0.2984
     39 H          24.8402   28.3159    2.9262 H       1  UNL1        0.1498
     40 C          22.9364   28.1795    1.9001 C.3     1  UNL1        0.1485
     41 C          21.8500   27.3270    2.4856 C.2     1  UNL1        0.2406
     42 O          21.5874   27.3562    3.9622 O.2     1  UNL1       -0.2733
     43 N          21.0262   26.4452    1.5946 N.am    1  UNL1       -0.2991
     44 H          21.1986   26.4260    0.6255 H       1  UNL1        0.1498
     45 C          19.9399   25.5926    2.1802 C.3     1  UNL1        0.1164
     46 C          19.1573   24.6650    1.2987 C.ar    1  UNL1       -0.0026
     47 C          18.1774   23.7039    1.9038 C.ar    1  UNL1       -0.0026
     48 C          17.3948   22.7762    1.0223 C.ar    1  UNL1       -0.0003
     49 C          17.5920   22.8097   -0.4643 C.ar    1  UNL1       -0.0000
     50 C          18.5719   23.7708   -1.0694 C.ar    1  UNL1       -0.0003
     51 C          19.3545   24.6984   -0.1879 C.ar    1  UNL1       -0.0026
     52 C          22.5847   29.3484    1.0283 C.3     1  UNL1        0.0269
     53 C          23.2214   29.4954   -0.3219 C.3     1  UNL1        0.0022
     54 C          21.5964   30.3704    1.5067 C.3     1  UNL1        0.0022
     55 C          25.9393   23.1947   -0.7490 C.3     1  UNL1        0.1645
     56 O          26.0658   21.7046   -0.8653 O.3     1  UNL1       -0.3472
     57 C          25.3698   20.9773   -1.9774 C.3     1  UNL1        0.1688
     58 C          26.1567   20.4680   -3.1484 C.ar    1  UNL1        0.0117
     59 C          26.3492   21.3353   -4.3570 C.ar    1  UNL1        0.0279
     60 C          27.1361   20.8260   -5.5281 C.ar    1  UNL1        0.1421
     61 F          27.3286   21.6934   -6.7366 F       1  UNL1       -0.2041
     62 C          27.7306   19.4493   -5.4905 C.ar    1  UNL1        0.0592
     63 C          27.5381   18.5820   -4.2819 C.ar    1  UNL1        0.1421
     64 F          28.1325   17.2053   -4.2444 F       1  UNL1       -0.2041
     65 C          26.7512   19.0913   -3.1109 C.ar    1  UNL1        0.0279
@<TRIPOS>BOND
     1    26    27    2
     2    26    28    2
     3    26    24    1
     4    24    25    1
     5    24     6    1
     6     6     7   ar
     7     7     8   ar
     8     8     9   ar
     9     9    10   ar
    10    10    11   ar
    11    10     2    1
    12     2     3    2
    13     2     4   am
    14     4     1    1
    15     1    30    1
    16    30    31    1
    17    30    33    1
    18    33    34    1
    19    34    36    1
    20    36    37    2
    21    36    38   am
    22    40    38    1
    23    40    52    1
    24    52    53    1
    25    52    54    1
    26    40    41    1
    27    41    42    2
    28    41    43   am
    29    43    45    1
    30    45    46    1
    31    46    47   ar
    32    47    48   ar
    33    48    49   ar
    34    49    50   ar
    35    50    51   ar
    36    34    35    1
    37     1    55    1
    38    55    56    1
    39    56    57    1
    40    57    58    1
    41    58    59   ar
    42    59    60   ar
    43    60    61    1
    44    60    62   ar
    45    62    63   ar
    46    63    64    1
    47    63    65   ar
    48     8    12    1
    49    12    13    2
    50    12    14   am
    51    14    16    1
    52    16    17    1
    53    16    18    1
    54    18    19   ar
    55    19    20   ar
    56    20    21   ar
    57    21    22   ar
    58    22    23   ar
    59    26    29    1
    60    11     6   ar
    61    51    46   ar
    62    65    58   ar
    63    23    18   ar
    64     4     5    1
    65    31    32    1
    66    38    39    1
    67    43    44    1
    68    14    15    1
@<TRIPOS>MOLECULE
*****
 65 68 0 0 0
SMALL
GASTEIGER

@<TRIPOS>ATOM
      1 C          23.9074   16.3803    0.9489 C.3     1  UNL1        0.1284
      2 C          22.3615   18.4664    0.8566 C.2     1  UNL1        0.2460
      3 O          22.9578   18.9650    2.1396 O.2     1  UNL1       -0.2701
      4 N          22.8363   17.1741    0.2613 N.am    1  UNL1       -0.2979
      5 H          22.4450   16.8469   -0.5807 H       1  UNL1        0.1498
      6 C          19.3991   19.4235   -1.6047 C.ar    1  UNL1        0.0688
      7 C          19.1483   20.8477   -1.2062 C.ar    1  UNL1        0.0206
      8 C          19.9686   21.4781   -0.1200 C.ar    1  UNL1        0.0548
      9 C          21.0396   20.6844    0.5676 C.ar    1  UNL1        0.0091
     10 C          21.2904   19.2602    0.1690 C.ar    1  UNL1        0.0548
     11 C          20.4702   18.6298   -0.9171 C.ar    1  UNL1        0.0206
     12 C          19.7177   22.9023    0.2786 C.2     1  UNL1        0.2461
     13 O          18.9724   23.8194   -0.6451 O.2     1  UNL1       -0.2701
     14 N          20.2123   23.4093    1.6008 N.am    1  UNL1       -0.2987
     15 H          20.7015   22.8073    2.2071 H       1  UNL1        0.1500
     16 C          19.9615   24.8334    1.9994 C.3     1  UNL1        0.0944
     17 C          18.5893   25.2618    2.4278 C.3     1  UNL1        0.0262
     18 C          21.0829   25.8292    1.9696 C.ar    1  UNL1       -0.0045
     19 C          21.8437   26.0642    0.6984 C.ar    1  UNL1       -0.0027
     20 C          22.9650   27.0600    0.6687 C.ar    1  UNL1       -0.0003
     21 C          23.3256   27.8208    1.9101 C.ar    1  UNL1       -0.0000
     22 C          22.5649   27.5858    3.1813 C.ar    1  UNL1       -0.0003
     23 C          21.4435   26.5900    3.2110 C.ar    1  UNL1       -0.0027
     24 N          18.5789   18.7931   -2.6909 N.pl3   1  UNL1       -0.1925
     25 C          17.0832   18.9031   -2.6610 C.3     1  UNL1        0.1388
     26 S          19.2542   18.0528   -3.8070 S.O2    1  UNL1        0.0588
     27 O          18.6917   16.7616   -3.2909 O.2     1  UNL1       -0.1542
     28 O          19.8168   19.3439   -4.3230 O.2     1  UNL1       -0.1542
     29 C          19.9296   17.3123   -4.9231 C.3     1  UNL1        0.1999
     30 C          25.3373   16.8273    0.8736 C.3     1  UNL1        0.1313
     31 O          25.8545   17.8525    1.8388 O.3     1  UNL1       -0.3827
     32 H          26.7791   18.1415    1.7901 H       1  UNL1        0.2104
     33 C          26.2500   16.2491   -0.1669 C.3     1  UNL1        0.0401
     34 C          26.0414   16.5800   -1.6150 C.3     1  UNL1        0.0790
     35 C          26.2882   15.5382   -2.6655 C.3     1  UNL1        0.0096
     36 C          25.5861   17.9528   -2.0125 C.2     1  UNL1        0.2224
     37 O          24.1520   18.1893   -2.3831 O.2     1  UNL1       -0.2751
     38 N          26.5650   19.0891   -2.0395 N.am    1  UNL1       -0.2984
     39 H          27.5062   18.9339   -1.7963 H       1  UNL1        0.1498
     40 C          26.1096   20.4620   -2.4371 C.3     1  UNL1        0.1485
     41 C          25.3744   21.3226   -1.4529 C.2     1  UNL1        0.2406
     42 O          23.9452   21.0197   -1.1126 O.2     1  UNL1       -0.2733
     43 N          26.0683   22.4862   -0.8090 N.am    1  UNL1       -0.2991
     44 H          27.0063   22.6850   -1.0323 H       1  UNL1        0.1498
     45 C          25.3331   23.3469    0.1752 C.3     1  UNL1        0.1164
     46 C          25.9026   24.6729    0.5840 C.ar    1  UNL1       -0.0026
     47 C          26.3617   25.6462   -0.4609 C.ar    1  UNL1       -0.0026
     48 C          26.9312   26.9724   -0.0520 C.ar    1  UNL1       -0.0003
     49 C          27.0416   27.3251    1.4017 C.ar    1  UNL1       -0.0000
     50 C          26.5825   26.3518    2.4466 C.ar    1  UNL1       -0.0003
     51 C          26.0130   25.0257    2.0378 C.ar    1  UNL1       -0.0026
     52 C          26.3895   20.9741   -3.8189 C.3     1  UNL1        0.0269
     53 C          27.4824   21.9774   -4.0399 C.3     1  UNL1        0.0022
     54 C          25.5764   20.4828   -4.9798 C.3     1  UNL1        0.0022
     55 C          23.5486   15.1397    1.7118 C.3     1  UNL1        0.1645
     56 O          23.9374   13.7927    1.1786 O.3     1  UNL1       -0.3472
     57 C          22.8771   12.8058    0.7886 C.3     1  UNL1        0.1688
     58 C          22.3888   11.7966    1.7850 C.ar    1  UNL1        0.0117
     59 C          20.9170   11.5643    1.9573 C.ar    1  UNL1        0.0279
     60 C          20.4286   10.5551    2.9538 C.ar    1  UNL1        0.1421
     61 F          18.9567   10.3227    3.1261 F       1  UNL1       -0.2041
     62 C          21.4120    9.7782    3.7780 C.ar    1  UNL1        0.0592
     63 C          22.8839   10.0106    3.6057 C.ar    1  UNL1        0.1421
     64 F          23.8674    9.2338    4.4299 F       1  UNL1       -0.2041
     65 C          23.3723   11.0198    2.6092 C.ar    1  UNL1        0.0279
@<TRIPOS>BOND
     1    26    27    2
     2    26    28    2
     3    26    24    1
     4    24    25    1
     5    24     6    1
     6     6     7   ar
     7     7     8   ar
     8     8     9   ar
     9     9    10   ar
    10    10    11   ar
    11    10     2    1
    12     2     3    2
    13     2     4   am
    14     4     1    1
    15     1    30    1
    16    30    31    1
    17    30    33    1
    18    33    34    1
    19    34    36    1
    20    36    37    2
    21    36    38   am
    22    40    38    1
    23    40    52    1
    24    52    53    1
    25    52    54    1
    26    40    41    1
    27    41    42    2
    28    41    43   am
    29    43    45    1
    30    45    46    1
    31    46    47   ar
    32    47    48   ar
    33    48    49   ar
    34    49    50   ar
    35    50    51   ar
    36    34    35    1
    37     1    55    1
    38    55    56    1
    39    56    57    1
    40    57    58    1
    41    58    59   ar
    42    59    60   ar
    43    60    61    1
    44    60    62   ar
    45    62    63   ar
    46    63    64    1
    47    63    65   ar
    48     8    12    1
    49    12    13    2
    50    12    14   am
    51    14    16    1
    52    16    17    1
    53    16    18    1
    54    18    19   ar
    55    19    20   ar
    56    20    21   ar
    57    21    22   ar
    58    22    23   ar
    59    26    29    1
    60    11     6   ar
    61    51    46   ar
    62    65    58   ar
    63    23    18   ar
    64     4     5    1
    65    31    32    1
    66    38    39    1
    67    43    44    1
    68    14    15    1
@<TRIPOS>MOLECULE
*****
 65 68 0 0 0
SMALL
GASTEIGER

@<TRIPOS>ATOM
      1 C          26.5366   17.7471   -2.1195 C.3     1  UNL1        0.1284
      2 C          25.0439   17.3623   -0.0281 C.2     1  UNL1        0.2460
      3 O          26.1952   17.7284    0.8610 O.2     1  UNL1       -0.2701
      4 N          25.2146   17.3717   -1.5183 N.am    1  UNL1       -0.2979
      5 H          24.4589   17.1314   -2.1018 H       1  UNL1        0.1498
      6 C          21.9259   15.1896    1.1153 C.ar    1  UNL1        0.0688
      7 C          21.0779   16.2361    1.7753 C.ar    1  UNL1        0.0206
      8 C          21.5519   17.6580    1.8342 C.ar    1  UNL1        0.0548
      9 C          22.8739   18.0334    1.2331 C.ar    1  UNL1        0.0091
     10 C          23.7219   16.9869    0.5731 C.ar    1  UNL1        0.0548
     11 C          23.2479   15.5650    0.5142 C.ar    1  UNL1        0.0206
     12 C          20.7038   18.7045    2.4943 C.2     1  UNL1        0.2461
     13 O          20.9951   19.1265    3.9039 O.2     1  UNL1       -0.2701
     14 N          19.5645   19.3290    1.7447 N.am    1  UNL1       -0.2987
     15 H          19.3733   19.0520    0.8195 H       1  UNL1        0.1500
     16 C          18.7164   20.3755    2.4047 C.3     1  UNL1        0.0944
     17 C          17.9431   20.0411    3.6458 C.3     1  UNL1        0.0262
     18 C          18.6415   21.7564    1.8236 C.ar    1  UNL1       -0.0045
     19 C          17.4442   22.6191    2.0920 C.ar    1  UNL1       -0.0027
     20 C          17.3694   23.9999    1.5109 C.ar    1  UNL1       -0.0003
     21 C          18.4919   24.5180    0.6614 C.ar    1  UNL1       -0.0000
     22 C          19.6892   23.6552    0.3930 C.ar    1  UNL1       -0.0003
     23 C          19.7640   22.2744    0.9741 C.ar    1  UNL1       -0.0027
     24 N          21.4520   13.7676    1.0564 N.pl3   1  UNL1       -0.1925
     25 C          20.0632   13.4591    0.5811 C.3     1  UNL1        0.1388
     26 S          22.3668   12.6543    1.4729 S.O2    1  UNL1        0.0588
     27 O          22.4449   12.1862    0.0500 O.2     1  UNL1       -0.1542
     28 O          22.2887   13.1224    2.8958 O.2     1  UNL1       -0.1542
     29 C          23.2817   11.5409    1.8893 C.3     1  UNL1        0.1999
     30 C          26.6805   19.0392   -2.8677 C.3     1  UNL1        0.1313
     31 O          28.0013   19.4124   -3.4728 O.3     1  UNL1       -0.3827
     32 H          28.0943   20.2480   -3.9566 H       1  UNL1        0.2104
     33 C          25.5035   19.9580   -3.0107 C.3     1  UNL1        0.0401
     34 C          25.0586   20.7936   -1.8472 C.3     1  UNL1        0.0790
     35 C          23.7669   20.4827   -1.1510 C.3     1  UNL1        0.0096
     36 C          25.9054   21.9401   -1.3799 C.2     1  UNL1        0.2224
     37 O          26.0426   22.2221    0.0870 O.2     1  UNL1       -0.2751
     38 N          26.6150   22.8047   -2.3794 N.am    1  UNL1       -0.2984
     39 H          26.5250   22.6196   -3.3421 H       1  UNL1        0.1498
     40 C          27.4618   23.9512   -1.9120 C.3     1  UNL1        0.1485
     41 C          26.8791   24.9921   -1.0026 C.2     1  UNL1        0.2406
     42 O          27.5755   25.3434    0.2786 O.2     1  UNL1       -0.2733
     43 N          25.6000   25.6818   -1.3745 N.am    1  UNL1       -0.2991
     44 H          25.1429   25.4512   -2.2155 H       1  UNL1        0.1498
     45 C          25.0173   26.7227   -0.4652 C.3     1  UNL1        0.1164
     46 C          23.9733   26.3396    0.5414 C.ar    1  UNL1       -0.0026
     47 C          22.7865   27.2289    0.7665 C.ar    1  UNL1       -0.0026
     48 C          21.7424   26.8457    1.7732 C.ar    1  UNL1       -0.0003
     49 C          21.8852   25.5734    2.5545 C.ar    1  UNL1       -0.0000
     50 C          23.0720   24.6840    2.3294 C.ar    1  UNL1       -0.0003
     51 C          24.1160   25.0671    1.3228 C.ar    1  UNL1       -0.0026
     52 C          28.8914   24.0568   -2.3540 C.3     1  UNL1        0.0269
     53 C          29.2961   23.5580   -3.7094 C.3     1  UNL1        0.0022
     54 C          29.9162   24.6611   -1.4404 C.3     1  UNL1        0.0022
     55 C          27.7148   16.8304   -1.9725 C.3     1  UNL1        0.1645
     56 O          29.1067   17.3889   -1.9926 O.3     1  UNL1       -0.3472
     57 C          30.2648   16.5044   -2.3485 C.3     1  UNL1        0.1688
     58 C          31.4714   17.0845   -3.0248 C.ar    1  UNL1        0.0117
     59 C          32.7638   16.3232   -3.0352 C.ar    1  UNL1        0.0279
     60 C          33.9706   16.9032   -3.7115 C.ar    1  UNL1        0.1421
     61 F          35.2629   16.1419   -3.7220 F       1  UNL1       -0.2041
     62 C          33.8849   18.2446   -4.3774 C.ar    1  UNL1        0.0592
     63 C          32.5924   19.0059   -4.3669 C.ar    1  UNL1        0.1421
     64 F          32.5068   20.3473   -5.0328 F       1  UNL1       -0.2041
     65 C          31.3858   18.4259   -3.6906 C.ar    1  UNL1        0.0279
@<TRIPOS>BOND
     1    26    27    2
     2    26    28    2
     3    26    24    1
     4    24    25    1
     5    24     6    1
     6     6     7   ar
     7     7     8   ar
     8     8     9   ar
     9     9    10   ar
    10    10    11   ar
    11    10     2    1
    12     2     3    2
    13     2     4   am
    14     4     1    1
    15     1    30    1
    16    30    31    1
    17    30    33    1
    18    33    34    1
    19    34    36    1
    20    36    37    2
    21    36    38   am
    22    40    38    1
    23    40    52    1
    24    52    53    1
    25    52    54    1
    26    40    41    1
    27    41    42    2
    28    41    43   am
    29    43    45    1
    30    45    46    1
    31    46    47   ar
    32    47    48   ar
    33    48    49   ar
    34    49    50   ar
    35    50    51   ar
    36    34    35    1
    37     1    55    1
    38    55    56    1
    39    56    57    1
    40    57    58    1
    41    58    59   ar
    42    59    60   ar
    43    60    61    1
    44    60    62   ar
    45    62    63   ar
    46    63    64    1
    47    63    65   ar
    48     8    12    1
    49    12    13    2
    50    12    14   am
    51    14    16    1
    52    16    17    1
    53    16    18    1
    54    18    19   ar
    55    19    20   ar
    56    20    21   ar
    57    21    22   ar
    58    22    23   ar
    59    26    29    1
    60    11     6   ar
    61    51    46   ar
    62    65    58   ar
    63    23    18   ar
    64     4     5    1
    65    31    32    1
    66    38    39    1
    67    43    44    1
    68    14    15    1
@<TRIPOS>MOLECULE
*****
 65 68 0 0 0
SMALL
GASTEIGER

@<TRIPOS>ATOM
      1 C          22.3726   18.4675    0.3365 C.3     1  UNL1        0.1284
      2 C          24.4874   19.9076   -0.1147 C.2     1  UNL1        0.2460
      3 O          25.1256   19.3595    1.1272 O.2     1  UNL1       -0.2701
      4 N          23.1110   19.4616   -0.5101 N.am    1  UNL1       -0.2979
      5 H          22.6921   19.8212   -1.3252 H       1  UNL1        0.1498
      6 C          26.5034   21.4867   -3.1466 C.ar    1  UNL1        0.0688
      7 C          26.7026   22.8895   -2.6545 C.ar    1  UNL1        0.0206
      8 C          26.1635   23.2984   -1.3158 C.ar    1  UNL1        0.0548
      9 C          25.4251   22.3045   -0.4692 C.ar    1  UNL1        0.0091
     10 C          25.2259   20.9016   -0.9613 C.ar    1  UNL1        0.0548
     11 C          25.7650   20.4927   -2.3000 C.ar    1  UNL1        0.0206
     12 C          26.3627   24.7014   -0.8238 C.2     1  UNL1        0.2461
     13 O          27.4013   24.9899    0.2193 O.2     1  UNL1       -0.2701
     14 N          25.5233   25.8158   -1.3748 N.am    1  UNL1       -0.2987
     15 H          24.8416   25.6264   -2.0594 H       1  UNL1        0.1500
     16 C          25.7225   27.2187   -0.8828 C.3     1  UNL1        0.0944
     17 C          27.0005   27.9444   -1.1831 C.3     1  UNL1        0.0262
     18 C          24.6438   27.8959   -0.0904 C.ar    1  UNL1       -0.0045
     19 C          24.1296   29.2385   -0.5180 C.ar    1  UNL1       -0.0027
     20 C          23.0509   29.9156    0.2744 C.ar    1  UNL1       -0.0003
     21 C          22.4865   29.2501    1.4944 C.ar    1  UNL1       -0.0000
     22 C          23.0007   27.9075    1.9221 C.ar    1  UNL1       -0.0003
     23 C          24.0793   27.2304    1.1297 C.ar    1  UNL1       -0.0027
     24 N          27.0425   21.0778   -4.4853 N.pl3   1  UNL1       -0.1925
     25 C          26.1096   20.8952   -5.6457 C.3     1  UNL1        0.1388
     26 S          28.5145   20.8514   -4.6637 S.O2    1  UNL1        0.0588
     27 O          28.6153   22.1253   -5.4492 O.2     1  UNL1       -0.1542
     28 O          28.4138   19.5775   -3.8783 O.2     1  UNL1       -0.1542
     29 C          29.9866   20.6250   -4.8421 C.3     1  UNL1        0.1999
     30 C          22.5174   16.9990    0.0674 C.3     1  UNL1        0.1313
     31 O          21.4308   16.0503    0.4790 O.3     1  UNL1       -0.3827
     32 H          21.5244   15.1006    0.3049 H       1  UNL1        0.2104
     33 C          23.7488   16.4791   -0.6133 C.3     1  UNL1        0.0401
     34 C          23.8971   16.6128   -2.0999 C.3     1  UNL1        0.0790
     35 C          22.6888   16.8534   -2.9555 C.3     1  UNL1        0.0096
     36 C          25.2536   16.5058   -2.7310 C.2     1  UNL1        0.2224
     37 O          25.5692   17.2924   -3.9686 O.2     1  UNL1       -0.2751
     38 N          26.2946   15.6123   -2.1244 N.am    1  UNL1       -0.2984
     39 H          26.0875   15.0960   -1.3121 H       1  UNL1        0.1498
     40 C          27.6513   15.5053   -2.7555 C.3     1  UNL1        0.1485
     41 C          28.7299   16.4795   -2.3846 C.2     1  UNL1        0.2406
     42 O          28.5126   17.4462   -1.2585 O.2     1  UNL1       -0.2733
     43 N          30.0259   16.4868   -3.1398 N.am    1  UNL1       -0.2991
     44 H          30.1686   15.8523   -3.8789 H       1  UNL1        0.1498
     45 C          31.1046   17.4609   -2.7689 C.3     1  UNL1        0.1164
     46 C          32.5229   17.2030   -3.1834 C.ar    1  UNL1       -0.0026
     47 C          33.3440   16.1824   -2.4526 C.ar    1  UNL1       -0.0026
     48 C          34.7624   15.9245   -2.8672 C.ar    1  UNL1       -0.0003
     49 C          35.3596   16.6873   -4.0124 C.ar    1  UNL1       -0.0000
     50 C          34.5384   17.7079   -4.7431 C.ar    1  UNL1       -0.0003
     51 C          33.1201   17.9658   -4.3287 C.ar    1  UNL1       -0.0026
     52 C          27.9292   14.4242   -3.7575 C.3     1  UNL1        0.0269
     53 C          28.9039   13.3319   -3.4313 C.3     1  UNL1        0.0022
     54 C          27.2322   14.4356   -5.0858 C.3     1  UNL1        0.0022
     55 C          21.4894   18.9420    1.4522 C.3     1  UNL1        0.1645
     56 O          21.2296   20.4084    1.6312 O.3     1  UNL1       -0.3472
     57 C          19.8204   20.9158    1.7143 C.3     1  UNL1        0.1688
     58 C          19.4041   22.1093    0.9067 C.ar    1  UNL1        0.0117
     59 C          19.1174   21.9606   -0.5581 C.ar    1  UNL1        0.0279
     60 C          18.7011   23.1541   -1.3658 C.ar    1  UNL1        0.1421
     61 F          18.4144   23.0055   -2.8305 F       1  UNL1       -0.2041
     62 C          18.5715   24.4963   -0.7086 C.ar    1  UNL1        0.0592
     63 C          18.8582   24.6449    0.7563 C.ar    1  UNL1        0.1421
     64 F          18.7286   25.9870    1.4135 F       1  UNL1       -0.2041
     65 C          19.2745   23.4514    1.5639 C.ar    1  UNL1        0.0279
@<TRIPOS>BOND
     1    26    27    2
     2    26    28    2
     3    26    24    1
     4    24    25    1
     5    24     6    1
     6     6     7   ar
     7     7     8   ar
     8     8     9   ar
     9     9    10   ar
    10    10    11   ar
    11    10     2    1
    12     2     3    2
    13     2     4   am
    14     4     1    1
    15     1    30    1
    16    30    31    1
    17    30    33    1
    18    33    34    1
    19    34    36    1
    20    36    37    2
    21    36    38   am
    22    40    38    1
    23    40    52    1
    24    52    53    1
    25    52    54    1
    26    40    41    1
    27    41    42    2
    28    41    43   am
    29    43    45    1
    30    45    46    1
    31    46    47   ar
    32    47    48   ar
    33    48    49   ar
    34    49    50   ar
    35    50    51   ar
    36    34    35    1
    37     1    55    1
    38    55    56    1
    39    56    57    1
    40    57    58    1
    41    58    59   ar
    42    59    60   ar
    43    60    61    1
    44    60    62   ar
    45    62    63   ar
    46    63    64    1
    47    63    65   ar
    48     8    12    1
    49    12    13    2
    50    12    14   am
    51    14    16    1
    52    16    17    1
    53    16    18    1
    54    18    19   ar
    55    19    20   ar
    56    20    21   ar
    57    21    22   ar
    58    22    23   ar
    59    26    29    1
    60    11     6   ar
    61    51    46   ar
    62    65    58   ar
    63    23    18   ar
    64     4     5    1
    65    31    32    1
    66    38    39    1
    67    43    44    1
    68    14    15    1
@<TRIPOS>MOLECULE
*****
 44 46 0 0 0
SMALL
GASTEIGER

@<TRIPOS>ATOM
      1 C          22.0206   19.1840    0.2899 C.3     1  UNL1        0.1087
      2 N          22.8842   20.1544   -0.4602 N.am    1  UNL1       -0.2996
      3 C          24.3215   20.3353   -0.0712 C.2     1  UNL1        0.2459
      4 O          24.8953   19.5459    1.0680 O.2     1  UNL1       -0.2701
      5 H          22.5076   20.6725   -1.2079 H       1  UNL1        0.1498
      6 C          25.1851   21.3056   -0.8213 C.ar    1  UNL1        0.0532
      7 C          25.6933   22.5406   -0.1383 C.ar    1  UNL1        0.0090
      8 C          26.5569   23.5110   -0.8884 C.ar    1  UNL1        0.0534
      9 C          26.9123   23.2464   -2.3214 C.ar    1  UNL1        0.0003
     10 C          26.4041   22.0113   -3.0044 C.ar    1  UNL1       -0.0216
     11 C          25.5405   21.0409   -2.2543 C.ar    1  UNL1        0.0003
     12 C          26.7595   21.7466   -4.4374 C.3     1  UNL1        0.0310
     13 C          27.0650   24.7461   -0.2054 C.2     1  UNL1        0.2490
     14 O          28.4812   24.8026    0.2860 O.2     1  UNL1       -0.2699
     15 N          26.1571   25.9246   -0.0138 N.am    1  UNL1       -0.2761
     16 C          26.6654   27.1597    0.6692 C.3     1  UNL1        0.0937
     17 C          26.4965   27.3206    2.1509 C.3     1  UNL1        0.0215
     18 C          25.7510   28.5022    2.6968 C.3     1  UNL1        0.0018
     19 C          24.7410   25.8681   -0.5052 C.3     1  UNL1        0.0937
     20 C          23.7815   26.9669   -0.1558 C.3     1  UNL1        0.0215
     21 C          22.7326   26.7415    0.8925 C.3     1  UNL1        0.0018
     22 C          21.5115   19.5343    1.6567 C.3     1  UNL1        0.1781
     23 O          22.3538   19.2532    2.8656 O.3     1  UNL1       -0.3777
     24 H          23.2277   18.8449    2.7636 H       1  UNL1        0.2106
     25 C          20.1600   20.1657    1.8146 C.3     1  UNL1        0.0837
     26 N          19.4751   20.1478    3.1489 N.4     1  UNL1        0.2520
     27 C          18.1237   20.7792    3.3068 C.3     1  UNL1        0.1047
     28 C          17.4571   21.4285    2.1304 C.3     1  UNL1        0.0905
     29 C          18.1420   21.4464    0.7960 C.3     1  UNL1        0.1269
     30 C          19.4935   20.8150    0.6381 C.3     1  UNL1        0.0871
     31 H          19.9283   19.7063    3.9490 H       1  UNL1        0.2034
     32 H          19.0093   20.1356    4.0563 H       1  UNL1        0.2034
     33 O          17.4755   22.0957   -0.3805 O.3     1  UNL1       -0.3558
     34 C          18.2477   22.3301   -1.6449 C.3     1  UNL1        0.1421
     35 C          18.5798   23.7289   -2.0724 C.3     1  UNL1        0.0346
     36 C          21.6662   17.8633   -0.3267 C.3     1  UNL1        0.0487
     37 F          19.4327   19.5273   -4.7134 F       1  UNL1       -0.2041
     38 C          19.4398   18.6109   -3.5259 C.ar    1  UNL1        0.1421
     39 C          20.5494   18.6953   -2.5201 C.ar    1  UNL1        0.0256
     40 C          20.5565   17.7789   -1.3325 C.ar    1  UNL1       -0.0160
     41 C          19.4541   16.7782   -1.1508 C.ar    1  UNL1        0.0256
     42 C          18.3445   16.6938   -2.1566 C.ar    1  UNL1        0.1421
     43 F          17.2420   15.6931   -1.9748 F       1  UNL1       -0.2041
     44 C          18.3374   17.6102   -3.3441 C.ar    1  UNL1        0.0592
@<TRIPOS>UNITY_ATOM_ATTR
26 1
charge 1
@<TRIPOS>BOND
     1    37    38    1
     2    38    39   ar
     3    39    40   ar
     4    40    41   ar
     5    41    42   ar
     6    42    43    1
     7    42    44   ar
     8    40    36    1
     9     1    36    1
    10     1     2    1
    11     2     3   am
    12     3     4    2
    13     3     6    1
    14     6     7   ar
    15     7     8   ar
    16     8     9   ar
    17     9    10   ar
    18    10    11   ar
    19    10    12    1
    20     8    13    1
    21    13    14    2
    22    13    15   am
    23    15    16    1
    24    16    17    1
    25    17    18    1
    26    15    19    1
    27    19    20    1
    28    20    21    1
    29     1    22    1
    30    22    23    1
    31    22    25    1
    32    25    26    1
    33    26    27    1
    34    27    28    1
    35    28    29    1
    36    29    33    1
    37    33    34    1
    38    34    35    1
    39    29    30    1
    40    44    38   ar
    41    11     6   ar
    42    25    30    1
    43     2     5    1
    44    23    24    1
    45    26    31    1
    46    26    32    1
@<TRIPOS>MOLECULE
*****
 44 46 0 0 0
SMALL
GASTEIGER

@<TRIPOS>ATOM
      1 C          22.6386   25.8128    1.9084 C.3     1  UNL1        0.1087
      2 N          22.7156   27.0747    1.1011 N.am    1  UNL1       -0.2996
      3 C          23.1672   28.3514    1.7463 C.2     1  UNL1        0.2459
      4 O          23.5418   28.3660    3.1987 O.2     1  UNL1       -0.2701
      5 H          22.4697   27.0651    0.1478 H       1  UNL1        0.1498
      6 C          23.2442   29.6133    0.9391 C.ar    1  UNL1        0.0532
      7 C          24.4649   29.9047    0.1176 C.ar    1  UNL1        0.0090
      8 C          24.5420   31.1667   -0.6897 C.ar    1  UNL1        0.0534
      9 C          23.3983   32.1372   -0.6753 C.ar    1  UNL1        0.0003
     10 C          22.1776   31.8457    0.1463 C.ar    1  UNL1       -0.0216
     11 C          22.1006   30.5838    0.9535 C.ar    1  UNL1        0.0003
     12 C          21.0339   32.8162    0.1606 C.3     1  UNL1        0.0310
     13 C          25.7626   31.4581   -1.5112 C.2     1  UNL1        0.2490
     14 O          26.9322   32.1646   -0.8922 O.2     1  UNL1       -0.2699
     15 N          25.8138   31.0431   -2.9518 N.am    1  UNL1       -0.2761
     16 C          27.0346   31.3346   -3.7733 C.3     1  UNL1        0.0937
     17 C          27.7787   30.2128   -4.4350 C.3     1  UNL1        0.0215
     18 C          28.5499   30.4655   -5.6964 C.3     1  UNL1        0.0018
     19 C          24.6444   30.3367   -3.5708 C.3     1  UNL1        0.0937
     20 C          23.9548   30.9305   -4.7632 C.3     1  UNL1        0.0215
     21 C          24.2441   30.4023   -6.1370 C.3     1  UNL1        0.0018
     22 C          21.4518   25.5572    2.7892 C.3     1  UNL1        0.1781
     23 O          21.4806   25.9803    4.2280 O.3     1  UNL1       -0.3777
     24 H          22.2668   26.4193    4.5888 H       1  UNL1        0.2106
     25 C          20.2360   24.8784    2.2313 C.3     1  UNL1        0.0837
     26 N          18.8904   25.1253    2.8467 N.4     1  UNL1        0.2520
     27 C          17.6747   24.4466    2.2888 C.3     1  UNL1        0.1047
     28 C          17.8044   23.5210    1.1156 C.3     1  UNL1        0.0905
     29 C          19.1500   23.2741    0.5003 C.3     1  UNL1        0.1269
     30 C          20.3657   23.9528    1.0581 C.3     1  UNL1        0.0871
     31 H          18.8022   25.7547    3.6444 H       1  UNL1        0.2034
     32 H          17.9755   25.2931    3.2651 H       1  UNL1        0.2034
     33 O          19.2797   22.3484   -0.6729 O.3     1  UNL1       -0.3558
     34 C          18.3132   22.4463   -1.8159 C.3     1  UNL1        0.1421
     35 C          18.3285   23.6506   -2.7099 C.3     1  UNL1        0.0346
     36 C          23.7485   24.8064    1.8347 C.3     1  UNL1        0.0487
     37 F          28.1896   27.5028    1.9177 F       1  UNL1       -0.2041
     38 C          27.2761   26.5249    1.2401 C.ar    1  UNL1        0.1421
     39 C          25.9691   26.1546    1.8761 C.ar    1  UNL1        0.0256
     40 C          25.0556   25.1767    1.1985 C.ar    1  UNL1       -0.0160
     41 C          25.4491   24.5690   -0.1151 C.ar    1  UNL1        0.0256
     42 C          26.7561   24.9393   -0.7512 C.ar    1  UNL1        0.1421
     43 F          27.1496   24.3315   -2.0650 F       1  UNL1       -0.2041
     44 C          27.6696   25.9172   -0.0736 C.ar    1  UNL1        0.0592
@<TRIPOS>UNITY_ATOM_ATTR
26 1
charge 1
@<TRIPOS>BOND
     1    37    38    1
     2    38    39   ar
     3    39    40   ar
     4    40    41   ar
     5    41    42   ar
     6    42    43    1
     7    42    44   ar
     8    40    36    1
     9     1    36    1
    10     1     2    1
    11     2     3   am
    12     3     4    2
    13     3     6    1
    14     6     7   ar
    15     7     8   ar
    16     8     9   ar
    17     9    10   ar
    18    10    11   ar
    19    10    12    1
    20     8    13    1
    21    13    14    2
    22    13    15   am
    23    15    16    1
    24    16    17    1
    25    17    18    1
    26    15    19    1
    27    19    20    1
    28    20    21    1
    29     1    22    1
    30    22    23    1
    31    22    25    1
    32    25    26    1
    33    26    27    1
    34    27    28    1
    35    28    29    1
    36    29    33    1
    37    33    34    1
    38    34    35    1
    39    29    30    1
    40    44    38   ar
    41    11     6   ar
    42    25    30    1
    43     2     5    1
    44    23    24    1
    45    26    31    1
    46    26    32    1
@<TRIPOS>MOLECULE
*****
 44 46 0 0 0
SMALL
GASTEIGER

@<TRIPOS>ATOM
      1 C          22.0079   19.5284    0.2015 C.3     1  UNL1        0.1087
      2 N          22.9292   20.4690   -0.5173 N.am    1  UNL1       -0.2996
      3 C          24.3689   20.5677   -0.1080 C.2     1  UNL1        0.2459
      4 O          24.8873   19.7258    1.0200 O.2     1  UNL1       -0.2701
      5 H          22.5889   21.0215   -1.2577 H       1  UNL1        0.1498
      6 C          25.2902   21.5082   -0.8268 C.ar    1  UNL1        0.0532
      7 C          25.8193   22.7230   -0.1239 C.ar    1  UNL1        0.0090
      8 C          26.7407   23.6636   -0.8426 C.ar    1  UNL1        0.0534
      9 C          27.1328   23.3893   -2.2643 C.ar    1  UNL1        0.0003
     10 C          26.6035   22.1744   -2.9671 C.ar    1  UNL1       -0.0216
     11 C          25.6823   21.2339   -2.2484 C.ar    1  UNL1        0.0003
     12 C          26.9956   21.9001   -4.3888 C.3     1  UNL1        0.0310
     13 C          27.2698   24.8785   -0.1398 C.2     1  UNL1        0.2490
     14 O          28.7176   24.9507    0.2461 O.2     1  UNL1       -0.2699
     15 N          26.3513   26.0212    0.1773 N.am    1  UNL1       -0.2761
     16 C          26.8805   27.2361    0.8802 C.3     1  UNL1        0.0937
     17 C          26.4424   27.5420    2.2818 C.3     1  UNL1        0.0215
     18 C          25.2832   28.4633    2.5211 C.3     1  UNL1        0.0018
     19 C          24.9036   25.9491   -0.2086 C.3     1  UNL1        0.0937
     20 C          24.3775   26.8175   -1.3127 C.3     1  UNL1        0.0215
     21 C          23.8799   28.1993   -1.0077 C.3     1  UNL1        0.0018
     22 C          21.5097   19.8696    1.5745 C.3     1  UNL1        0.1781
     23 O          22.3281   19.5121    2.7797 O.3     1  UNL1       -0.3777
     24 H          23.1796   19.0603    2.6711 H       1  UNL1        0.2106
     25 C          20.1930   20.5683    1.7425 C.3     1  UNL1        0.0837
     26 N          19.2104   20.0808    2.7657 N.4     1  UNL1        0.2520
     27 C          17.8938   20.7795    2.9336 C.3     1  UNL1        0.1047
     28 C          17.5596   21.9656    2.0784 C.3     1  UNL1        0.0905
     29 C          18.5422   22.4530    1.0551 C.3     1  UNL1        0.1269
     30 C          19.8588   21.7544    0.8872 C.3     1  UNL1        0.0871
     31 H          19.4376   19.2743    3.3473 H       1  UNL1        0.2034
     32 H          18.5423   19.7494    3.4615 H       1  UNL1        0.2034
     33 O          18.2080   23.6392    0.1998 O.3     1  UNL1       -0.3558
     34 C          18.8910   23.8267   -1.1224 C.3     1  UNL1        0.1421
     35 C          18.2596   23.2949   -2.3747 C.3     1  UNL1        0.0346
     36 C          21.5849   18.2466   -0.4528 C.3     1  UNL1        0.0487
     37 F          19.9581   13.5338    1.0110 F       1  UNL1       -0.2041
     38 C          21.0327   14.5791    0.9594 C.ar    1  UNL1        0.1421
     39 C          20.7715   15.8902    0.2791 C.ar    1  UNL1        0.0256
     40 C          21.8461   16.9354    0.2275 C.ar    1  UNL1       -0.0160
     41 C          23.1818   16.6696    0.8561 C.ar    1  UNL1        0.0256
     42 C          23.4429   15.3585    1.5364 C.ar    1  UNL1        0.1421
     43 F          24.7787   15.0927    2.1651 F       1  UNL1       -0.2041
     44 C          22.3684   14.3133    1.5880 C.ar    1  UNL1        0.0592
@<TRIPOS>UNITY_ATOM_ATTR
26 1
charge 1
@<TRIPOS>BOND
     1    37    38    1
     2    38    39   ar
     3    39    40   ar
     4    40    41   ar
     5    41    42   ar
     6    42    43    1
     7    42    44   ar
     8    40    36    1
     9     1    36    1
    10     1     2    1
    11     2     3   am
    12     3     4    2
    13     3     6    1
    14     6     7   ar
    15     7     8   ar
    16     8     9   ar
    17     9    10   ar
    18    10    11   ar
    19    10    12    1
    20     8    13    1
    21    13    14    2
    22    13    15   am
    23    15    16    1
    24    16    17    1
    25    17    18    1
    26    15    19    1
    27    19    20    1
    28    20    21    1
    29     1    22    1
    30    22    23    1
    31    22    25    1
    32    25    26    1
    33    26    27    1
    34    27    28    1
    35    28    29    1
    36    29    33    1
    37    33    34    1
    38    34    35    1
    39    29    30    1
    40    44    38   ar
    41    11     6   ar
    42    25    30    1
    43     2     5    1
    44    23    24    1
    45    26    31    1
    46    26    32    1
@<TRIPOS>MOLECULE
*****
 44 46 0 0 0
SMALL
GASTEIGER

@<TRIPOS>ATOM
      1 C          22.1156   19.3328    0.6189 C.3     1  UNL1        0.1087
      2 N          22.9279   20.2291   -0.2683 N.am    1  UNL1       -0.2996
      3 C          24.3902   20.4261    0.0017 C.2     1  UNL1        0.2459
      4 O          25.0402   19.7269    1.1587 O.2     1  UNL1       -0.2701
      5 H          22.5013   20.6880   -1.0276 H       1  UNL1        0.1498
      6 C          25.2025   21.3223   -0.8854 C.ar    1  UNL1        0.0532
      7 C          25.8118   22.5752   -0.3296 C.ar    1  UNL1        0.0090
      8 C          26.6242   23.4715   -1.2167 C.ar    1  UNL1        0.0534
      9 C          26.8272   23.1148   -2.6595 C.ar    1  UNL1        0.0003
     10 C          26.2178   21.8618   -3.2152 C.ar    1  UNL1       -0.0216
     11 C          25.4055   20.9656   -2.3281 C.ar    1  UNL1        0.0003
     12 C          26.4209   21.5051   -4.6579 C.3     1  UNL1        0.0310
     13 C          27.2335   24.7245   -0.6610 C.2     1  UNL1        0.2490
     14 O          28.6271   24.6988   -0.1066 O.2     1  UNL1       -0.2699
     15 N          26.4493   26.0031   -0.6596 N.am    1  UNL1       -0.2761
     16 C          27.0587   27.2561   -0.1039 C.3     1  UNL1        0.0937
     17 C          27.0889   27.4817    1.3788 C.3     1  UNL1        0.0215
     18 C          26.5056   26.4565    2.3054 C.3     1  UNL1        0.0018
     19 C          25.0558   26.0289   -1.2140 C.3     1  UNL1        0.0937
     20 C          24.0460   26.9903   -0.6605 C.3     1  UNL1        0.0215
     21 C          23.2943   26.6499    0.5920 C.3     1  UNL1        0.0018
     22 C          21.8785   17.9045    0.2269 C.3     1  UNL1        0.1781
     23 O          20.8540   17.5735   -0.8175 O.3     1  UNL1       -0.3777
     24 H          20.3448   18.2831   -1.2394 H       1  UNL1        0.2106
     25 C          22.6660   16.8071    0.8794 C.3     1  UNL1        0.0837
     26 N          24.1567   16.9227    0.9989 N.4     1  UNL1        0.2520
     27 C          24.9442   15.8254    1.6513 C.3     1  UNL1        0.1047
     28 C          24.2409   14.6124    2.1843 C.3     1  UNL1        0.0905
     29 C          22.7501   14.4968    2.0648 C.3     1  UNL1        0.1269
     30 C          21.9627   15.5941    1.4124 C.3     1  UNL1        0.0871
     31 H          24.6350   17.7475    0.6364 H       1  UNL1        0.2034
     32 H          25.1704   17.0013    1.0801 H       1  UNL1        0.2034
     33 O          22.0468   13.2838    2.5978 O.3     1  UNL1       -0.3558
     34 C          22.3936   11.9233    2.0699 C.3     1  UNL1        0.1421
     35 C          23.3729   11.0596    2.8080 C.3     1  UNL1        0.0346
     36 C          21.5404   19.8649    1.8979 C.3     1  UNL1        0.0487
     37 F          17.9209   22.9540   -0.1895 F       1  UNL1       -0.2041
     38 C          18.3445   21.9824    0.8720 C.ar    1  UNL1        0.1421
     39 C          19.7306   21.4095    0.8542 C.ar    1  UNL1        0.0256
     40 C          20.1542   20.4379    1.9157 C.ar    1  UNL1       -0.0160
     41 C          19.1917   20.0394    2.9949 C.ar    1  UNL1        0.0256
     42 C          17.8056   20.6124    3.0126 C.ar    1  UNL1        0.1421
     43 F          16.8430   20.2139    4.0919 F       1  UNL1       -0.2041
     44 C          17.3820   21.5839    1.9512 C.ar    1  UNL1        0.0592
@<TRIPOS>UNITY_ATOM_ATTR
26 1
charge 1
@<TRIPOS>BOND
     1    37    38    1
     2    38    39   ar
     3    39    40   ar
     4    40    41   ar
     5    41    42   ar
     6    42    43    1
     7    42    44   ar
     8    40    36    1
     9     1    36    1
    10     1     2    1
    11     2     3   am
    12     3     4    2
    13     3     6    1
    14     6     7   ar
    15     7     8   ar
    16     8     9   ar
    17     9    10   ar
    18    10    11   ar
    19    10    12    1
    20     8    13    1
    21    13    14    2
    22    13    15   am
    23    15    16    1
    24    16    17    1
    25    17    18    1
    26    15    19    1
    27    19    20    1
    28    20    21    1
    29     1    22    1
    30    22    23    1
    31    22    25    1
    32    25    26    1
    33    26    27    1
    34    27    28    1
    35    28    29    1
    36    29    33    1
    37    33    34    1
    38    34    35    1
    39    29    30    1
    40    44    38   ar
    41    11     6   ar
    42    25    30    1
    43     2     5    1
    44    23    24    1
    45    26    31    1
    46    26    32    1
@<TRIPOS>MOLECULE
*****
 44 46 0 0 0
SMALL
GASTEIGER

@<TRIPOS>ATOM
      1 C          21.7995   19.7419    0.4597 C.3     1  UNL1        0.1087
      2 N          22.7260   20.5794   -0.3712 N.am    1  UNL1       -0.2996
      3 C          24.1904   20.6224   -0.0489 C.2     1  UNL1        0.2459
      4 O          24.7282   19.8281    1.1044 O.2     1  UNL1       -0.2701
      5 H          22.3730   21.1007   -1.1281 H       1  UNL1        0.1498
      6 C          25.1169   21.4598   -0.8797 C.ar    1  UNL1        0.0532
      7 C          25.7456   22.6891   -0.2937 C.ar    1  UNL1        0.0090
      8 C          26.6721   23.5265   -1.1245 C.ar    1  UNL1        0.0534
      9 C          26.9699   23.1346   -2.5415 C.ar    1  UNL1        0.0003
     10 C          26.3412   21.9052   -3.1275 C.ar    1  UNL1       -0.0216
     11 C          25.4147   21.0679   -2.2967 C.ar    1  UNL1        0.0003
     12 C          26.6390   21.5133   -4.5445 C.3     1  UNL1        0.0310
     13 C          27.3008   24.7558   -0.5385 C.2     1  UNL1        0.2490
     14 O          28.7243   24.7181   -0.0669 O.2     1  UNL1       -0.2699
     15 N          26.5061   26.0228   -0.4239 N.am    1  UNL1       -0.2761
     16 C          27.1349   27.2522    0.1622 C.3     1  UNL1        0.0937
     17 C          27.2081   27.4200    1.6510 C.3     1  UNL1        0.0215
     18 C          27.8227   28.6565    2.2370 C.3     1  UNL1        0.0018
     19 C          25.0827   26.0605   -0.8955 C.3     1  UNL1        0.0937
     20 C          23.9705   26.2573    0.0916 C.3     1  UNL1        0.0215
     21 C          24.0006   25.5393    1.4083 C.3     1  UNL1        0.0018
     22 C          22.3507   18.6496    1.3274 C.3     1  UNL1        0.1781
     23 O          22.7417   18.9434    2.7455 O.3     1  UNL1       -0.3777
     24 H          22.6382   19.8398    3.1013 H       1  UNL1        0.2106
     25 C          22.5109   17.2634    0.7771 C.3     1  UNL1        0.0837
     26 N          22.9672   17.0664   -0.6381 N.4     1  UNL1        0.2520
     27 C          23.1274   15.6802   -1.1884 C.3     1  UNL1        0.1047
     28 C          22.8313   14.4911   -0.3235 C.3     1  UNL1        0.0905
     29 C          22.3750   14.6881    1.0918 C.3     1  UNL1        0.1269
     30 C          22.2148   16.0742    1.6421 C.3     1  UNL1        0.0871
     31 H          23.1686   17.8750   -1.2263 H       1  UNL1        0.2034
     32 H          23.2775   16.9324   -1.6005 H       1  UNL1        0.2034
     33 O          22.0789   13.4988    1.9568 O.3     1  UNL1       -0.3558
     34 C          22.9391   13.2068    3.1503 C.3     1  UNL1        0.1421
     35 C          24.4334   13.2402    3.0241 C.3     1  UNL1        0.0346
     36 C          20.3218   19.9969    0.4229 C.3     1  UNL1        0.0487
     37 F          19.7014   24.9303    1.9318 F       1  UNL1       -0.2041
     38 C          19.4956   23.8473    0.9146 C.ar    1  UNL1        0.1421
     39 C          20.0116   22.4636    1.1773 C.ar    1  UNL1        0.0256
     40 C          19.8058   21.3807    0.1600 C.ar    1  UNL1       -0.0160
     41 C          19.0841   21.6814   -1.1200 C.ar    1  UNL1        0.0256
     42 C          18.5682   23.0651   -1.3828 C.ar    1  UNL1        0.1421
     43 F          17.8464   23.3660   -2.6630 F       1  UNL1       -0.2041
     44 C          18.7739   24.1481   -0.3655 C.ar    1  UNL1        0.0592
@<TRIPOS>UNITY_ATOM_ATTR
26 1
charge 1
@<TRIPOS>BOND
     1    37    38    1
     2    38    39   ar
     3    39    40   ar
     4    40    41   ar
     5    41    42   ar
     6    42    43    1
     7    42    44   ar
     8    40    36    1
     9     1    36    1
    10     1     2    1
    11     2     3   am
    12     3     4    2
    13     3     6    1
    14     6     7   ar
    15     7     8   ar
    16     8     9   ar
    17     9    10   ar
    18    10    11   ar
    19    10    12    1
    20     8    13    1
    21    13    14    2
    22    13    15   am
    23    15    16    1
    24    16    17    1
    25    17    18    1
    26    15    19    1
    27    19    20    1
    28    20    21    1
    29     1    22    1
    30    22    23    1
    31    22    25    1
    32    25    26    1
    33    26    27    1
    34    27    28    1
    35    28    29    1
    36    29    33    1
    37    33    34    1
    38    34    35    1
    39    29    30    1
    40    44    38   ar
    41    11     6   ar
    42    25    30    1
    43     2     5    1
    44    23    24    1
    45    26    31    1
    46    26    32    1
@<TRIPOS>MOLECULE
*****
 44 46 0 0 0
SMALL
GASTEIGER

@<TRIPOS>ATOM
      1 C          21.7761   19.7050    0.2843 C.3     1  UNL1        0.1087
      2 N          22.7303   20.5308   -0.5268 N.am    1  UNL1       -0.2996
      3 C          24.1749   20.6127   -0.1311 C.2     1  UNL1        0.2459
      4 O          24.6652   19.8688    1.0757 O.2     1  UNL1       -0.2701
      5 H          22.4084   21.0190   -1.3188 H       1  UNL1        0.1498
      6 C          25.1290   21.4384   -0.9420 C.ar    1  UNL1        0.0532
      7 C          25.7547   22.6640   -0.3451 C.ar    1  UNL1        0.0090
      8 C          26.7089   23.4898   -1.1561 C.ar    1  UNL1        0.0534
      9 C          27.0374   23.0899   -2.5640 C.ar    1  UNL1        0.0003
     10 C          26.4116   21.8642   -3.1609 C.ar    1  UNL1       -0.0216
     11 C          25.4575   21.0385   -2.3499 C.ar    1  UNL1        0.0003
     12 C          26.7401   21.4644   -4.5688 C.3     1  UNL1        0.0310
     13 C          27.3345   24.7154   -0.5591 C.2     1  UNL1        0.2490
     14 O          28.7668   24.6855   -0.1142 O.2     1  UNL1       -0.2699
     15 N          26.5280   25.9710   -0.4071 N.am    1  UNL1       -0.2761
     16 C          27.1537   27.1966    0.1899 C.3     1  UNL1        0.0937
     17 C          27.1795   27.3761    1.6789 C.3     1  UNL1        0.0215
     18 C          27.8696   28.5649    2.2792 C.3     1  UNL1        0.0018
     19 C          25.0958   26.0009   -0.8519 C.3     1  UNL1        0.0937
     20 C          24.0058   26.2592    0.1457 C.3     1  UNL1        0.0215
     21 C          23.9556   25.4729    1.4221 C.3     1  UNL1        0.0018
     22 C          21.8459   18.2076    0.2289 C.3     1  UNL1        0.1781
     23 O          23.0846   17.4970    0.6879 O.3     1  UNL1       -0.3777
     24 H          23.8406   18.0058    1.0204 H       1  UNL1        0.2106
     25 C          20.6769   17.4208   -0.2854 C.3     1  UNL1        0.0837
     26 N          20.3079   16.1178    0.3595 N.4     1  UNL1        0.2520
     27 C          19.1389   15.3310   -0.1548 C.3     1  UNL1        0.1047
     28 C          18.3390   15.8472   -1.3139 C.3     1  UNL1        0.0905
     29 C          18.7081   17.1503   -1.9588 C.3     1  UNL1        0.1269
     30 C          19.8770   17.9371   -1.4445 C.3     1  UNL1        0.0871
     31 H          20.8518   15.7667    1.1477 H       1  UNL1        0.2034
     32 H          20.0569   15.2317    0.7980 H       1  UNL1        0.2034
     33 O          17.9081   17.6665   -3.1180 O.3     1  UNL1       -0.3558
     34 C          18.5864   17.9721   -4.4204 C.3     1  UNL1        0.1421
     35 C          17.9873   17.4915   -5.7088 C.3     1  UNL1        0.0346
     36 C          20.7523   20.3766    1.1506 C.3     1  UNL1        0.0487
     37 F          19.7892   25.4529    1.7016 F       1  UNL1       -0.2041
     38 C          19.5940   24.1673    0.9538 C.ar    1  UNL1        0.1421
     39 C          20.2707   22.9148    1.4261 C.ar    1  UNL1        0.0256
     40 C          20.0755   21.6292    0.6783 C.ar    1  UNL1       -0.0160
     41 C          19.2036   21.5962   -0.5418 C.ar    1  UNL1        0.0256
     42 C          18.5268   22.8487   -1.0141 C.ar    1  UNL1        0.1421
     43 F          17.6549   22.8158   -2.2342 F       1  UNL1       -0.2041
     44 C          18.7221   24.1343   -0.2663 C.ar    1  UNL1        0.0592
@<TRIPOS>UNITY_ATOM_ATTR
26 1
charge 1
@<TRIPOS>BOND
     1    37    38    1
     2    38    39   ar
     3    39    40   ar
     4    40    41   ar
     5    41    42   ar
     6    42    43    1
     7    42    44   ar
     8    40    36    1
     9     1    36    1
    10     1     2    1
    11     2     3   am
    12     3     4    2
    13     3     6    1
    14     6     7   ar
    15     7     8   ar
    16     8     9   ar
    17     9    10   ar
    18    10    11   ar
    19    10    12    1
    20     8    13    1
    21    13    14    2
    22    13    15   am
    23    15    16    1
    24    16    17    1
    25    17    18    1
    26    15    19    1
    27    19    20    1
    28    20    21    1
    29     1    22    1
    30    22    23    1
    31    22    25    1
    32    25    26    1
    33    26    27    1
    34    27    28    1
    35    28    29    1
    36    29    33    1
    37    33    34    1
    38    34    35    1
    39    29    30    1
    40    44    38   ar
    41    11     6   ar
    42    25    30    1
    43     2     5    1
    44    23    24    1
    45    26    31    1
    46    26    32    1
@<TRIPOS>MOLECULE
*****
 44 46 0 0 0
SMALL
GASTEIGER

@<TRIPOS>ATOM
      1 C          18.6155   20.7365   -1.8579 C.3     1  UNL1        0.1087
      2 N          17.6193   19.7588   -2.4073 N.am    1  UNL1       -0.2996
      3 C          18.0924   18.5158   -3.1010 C.2     1  UNL1        0.2459
      4 O          19.5617   18.2506   -3.2454 O.2     1  UNL1       -0.2701
      5 H          16.6550   19.9329   -2.3125 H       1  UNL1        0.1498
      6 C          17.0963   17.5382   -3.6503 C.ar    1  UNL1        0.0532
      7 C          16.3224   17.8730   -4.8908 C.ar    1  UNL1        0.0090
      8 C          15.3262   16.8953   -5.4402 C.ar    1  UNL1        0.0534
      9 C          15.1039   15.5828   -4.7490 C.ar    1  UNL1        0.0003
     10 C          15.8778   15.2479   -3.5084 C.ar    1  UNL1       -0.0216
     11 C          16.8740   16.2256   -2.9591 C.ar    1  UNL1        0.0003
     12 C          15.6555   13.9354   -2.8172 C.3     1  UNL1        0.0310
     13 C          14.5524   17.2302   -6.6808 C.2     1  UNL1        0.2490
     14 O          13.4765   18.2745   -6.6346 O.2     1  UNL1       -0.2699
     15 N          14.8543   16.5208   -7.9675 N.am    1  UNL1       -0.2761
     16 C          14.0804   16.8558   -9.2080 C.3     1  UNL1        0.0937
     17 C          12.7781   16.1662   -9.4886 C.3     1  UNL1        0.0215
     18 C          11.4832   16.8397   -9.1430 C.3     1  UNL1        0.0018
     19 C          15.9301   15.4766   -8.0136 C.3     1  UNL1        0.0937
     20 C          15.5849   14.0590   -8.3623 C.3     1  UNL1        0.0215
     21 C          14.5317   13.3299   -7.5819 C.3     1  UNL1        0.0018
     22 C          18.3182   22.2064   -1.8868 C.3     1  UNL1        0.1781
     23 O          18.2321   22.9286   -3.1987 O.3     1  UNL1       -0.3777
     24 H          18.3687   22.4450   -4.0284 H       1  UNL1        0.2106
     25 C          18.1068   22.9542   -0.6037 C.3     1  UNL1        0.0837
     26 N          16.9835   22.5690    0.3126 N.4     1  UNL1        0.2520
     27 C          16.7721   23.3168    1.5956 C.3     1  UNL1        0.1047
     28 C          17.6841   24.4498    1.9622 C.3     1  UNL1        0.0905
     29 C          18.8075   24.8350    1.0459 C.3     1  UNL1        0.1269
     30 C          19.0188   24.0872   -0.2371 C.3     1  UNL1        0.0871
     31 H          16.3633   21.7985    0.0632 H       1  UNL1        0.2034
     32 H          16.2196   22.3070    0.9357 H       1  UNL1        0.2034
     33 O          19.7195   25.9681    1.4127 O.3     1  UNL1       -0.3558
     34 C          20.8351   25.7465    2.3906 C.3     1  UNL1        0.1421
     35 C          21.8585   24.6809    2.1319 C.3     1  UNL1        0.0346
     36 C          19.9091   20.2442   -1.2797 C.3     1  UNL1        0.0487
     37 F          21.1518   16.1373    1.6510 F       1  UNL1       -0.2041
     38 C          20.5423   17.5014    1.5178 C.ar    1  UNL1        0.1421
     39 C          20.5304   18.1907    0.1857 C.ar    1  UNL1        0.0256
     40 C          19.9210   19.5549    0.0525 C.ar    1  UNL1       -0.0160
     41 C          19.3234   20.2297    1.2514 C.ar    1  UNL1        0.0256
     42 C          19.3353   19.5403    2.5836 C.ar    1  UNL1        0.1421
     43 F          18.7377   20.2151    3.7826 F       1  UNL1       -0.2041
     44 C          19.9448   18.1762    2.7168 C.ar    1  UNL1        0.0592
@<TRIPOS>UNITY_ATOM_ATTR
26 1
charge 1
@<TRIPOS>BOND
     1    37    38    1
     2    38    39   ar
     3    39    40   ar
     4    40    41   ar
     5    41    42   ar
     6    42    43    1
     7    42    44   ar
     8    40    36    1
     9     1    36    1
    10     1     2    1
    11     2     3   am
    12     3     4    2
    13     3     6    1
    14     6     7   ar
    15     7     8   ar
    16     8     9   ar
    17     9    10   ar
    18    10    11   ar
    19    10    12    1
    20     8    13    1
    21    13    14    2
    22    13    15   am
    23    15    16    1
    24    16    17    1
    25    17    18    1
    26    15    19    1
    27    19    20    1
    28    20    21    1
    29     1    22    1
    30    22    23    1
    31    22    25    1
    32    25    26    1
    33    26    27    1
    34    27    28    1
    35    28    29    1
    36    29    33    1
    37    33    34    1
    38    34    35    1
    39    29    30    1
    40    44    38   ar
    41    11     6   ar
    42    25    30    1
    43     2     5    1
    44    23    24    1
    45    26    31    1
    46    26    32    1
@<TRIPOS>MOLECULE
*****
 44 46 0 0 0
SMALL
GASTEIGER

@<TRIPOS>ATOM
      1 C          22.2175   18.6760    0.0093 C.3     1  UNL1        0.1087
      2 N          23.3197   19.4199   -0.6849 N.am    1  UNL1       -0.2996
      3 C          23.6926   20.8009   -0.2336 C.2     1  UNL1        0.2459
      4 O          22.9632   21.4381    0.9120 O.2     1  UNL1       -0.2701
      5 H          23.7983   19.0017   -1.4368 H       1  UNL1        0.1498
      6 C          24.7947   21.5448   -0.9278 C.ar    1  UNL1        0.0532
      7 C          25.4105   22.7493   -0.2798 C.ar    1  UNL1        0.0090
      8 C          26.5126   23.4933   -0.9739 C.ar    1  UNL1        0.0534
      9 C          26.9990   23.0327   -2.3161 C.ar    1  UNL1        0.0003
     10 C          26.3831   21.8281   -2.9640 C.ar    1  UNL1       -0.0216
     11 C          25.2810   21.0842   -2.2699 C.ar    1  UNL1        0.0003
     12 C          26.8695   21.3675   -4.3062 C.3     1  UNL1        0.0310
     13 C          27.1284   24.6978   -0.3260 C.2     1  UNL1        0.2490
     14 O          28.4902   24.6012    0.2957 O.2     1  UNL1       -0.2699
     15 N          26.3825   25.9990   -0.2996 N.am    1  UNL1       -0.2761
     16 C          26.9984   27.2035    0.3484 C.3     1  UNL1        0.0937
     17 C          26.8842   27.3981    1.8313 C.3     1  UNL1        0.0215
     18 C          26.2829   28.6587    2.3783 C.3     1  UNL1        0.0018
     19 C          25.0209   26.0956   -0.9213 C.3     1  UNL1        0.0937
     20 C          24.4127   27.4403   -1.1900 C.3     1  UNL1        0.0215
     21 C          23.5635   28.1016   -0.1453 C.3     1  UNL1        0.0018
     22 C          22.5023   17.9226    1.2747 C.3     1  UNL1        0.1781
     23 O          22.6386   18.6614    2.5730 O.3     1  UNL1       -0.3777
     24 H          22.5425   19.6264    2.5942 H       1  UNL1        0.2106
     25 C          22.6508   16.4303    1.2418 C.3     1  UNL1        0.0837
     26 N          22.2881   15.6138    2.4467 N.4     1  UNL1        0.2520
     27 C          22.4366   14.1215    2.4139 C.3     1  UNL1        0.1047
     28 C          22.9479   13.4458    1.1762 C.3     1  UNL1        0.0905
     29 C          23.3106   14.2623   -0.0287 C.3     1  UNL1        0.1269
     30 C          23.1621   15.7545    0.0041 C.3     1  UNL1        0.0871
     31 H          21.9405   16.0733    3.2884 H       1  UNL1        0.2034
     32 H          22.0415   15.0586    3.2661 H       1  UNL1        0.2034
     33 O          23.8218   13.5864   -1.2664 O.3     1  UNL1       -0.3558
     34 C          22.9339   13.4500   -2.4676 C.3     1  UNL1        0.1421
     35 C          21.4575   13.2529   -2.2904 C.3     1  UNL1        0.0346
     36 C          20.8306   18.6855   -0.5619 C.3     1  UNL1        0.0487
     37 F          17.6862   22.6454   -1.7587 F       1  UNL1       -0.2041
     38 C          18.2804   21.7213   -0.7375 C.ar    1  UNL1        0.1421
     39 C          19.2584   20.6655   -1.1603 C.ar    1  UNL1        0.0256
     40 C          19.8525   19.7413   -0.1391 C.ar    1  UNL1       -0.0160
     41 C          19.4687   19.8730    1.3050 C.ar    1  UNL1        0.0256
     42 C          18.4907   20.9288    1.7278 C.ar    1  UNL1        0.1421
     43 F          18.1068   21.0605    3.1719 F       1  UNL1       -0.2041
     44 C          17.8966   21.8529    0.7066 C.ar    1  UNL1        0.0592
@<TRIPOS>UNITY_ATOM_ATTR
26 1
charge 1
@<TRIPOS>BOND
     1    37    38    1
     2    38    39   ar
     3    39    40   ar
     4    40    41   ar
     5    41    42   ar
     6    42    43    1
     7    42    44   ar
     8    40    36    1
     9     1    36    1
    10     1     2    1
    11     2     3   am
    12     3     4    2
    13     3     6    1
    14     6     7   ar
    15     7     8   ar
    16     8     9   ar
    17     9    10   ar
    18    10    11   ar
    19    10    12    1
    20     8    13    1
    21    13    14    2
    22    13    15   am
    23    15    16    1
    24    16    17    1
    25    17    18    1
    26    15    19    1
    27    19    20    1
    28    20    21    1
    29     1    22    1
    30    22    23    1
    31    22    25    1
    32    25    26    1
    33    26    27    1
    34    27    28    1
    35    28    29    1
    36    29    33    1
    37    33    34    1
    38    34    35    1
    39    29    30    1
    40    44    38   ar
    41    11     6   ar
    42    25    30    1
    43     2     5    1
    44    23    24    1
    45    26    31    1
    46    26    32    1
@<TRIPOS>MOLECULE
*****
 44 46 0 0 0
SMALL
GASTEIGER

@<TRIPOS>ATOM
      1 C          22.9214   15.3484    1.5014 C.3     1  UNL1        0.1087
      2 N          21.8562   16.1961    0.8716 N.am    1  UNL1       -0.2996
      3 C          21.6638   17.6145    1.3200 C.2     1  UNL1        0.2459
      4 O          22.5366   18.1852    2.3982 O.2     1  UNL1       -0.2701
      5 H          21.2834   15.8216    0.1639 H       1  UNL1        0.1498
      6 C          20.5987   18.4623    0.6901 C.ar    1  UNL1        0.0532
      7 C          19.9851   19.5922    1.4626 C.ar    1  UNL1        0.0090
      8 C          18.9199   20.4400    0.8328 C.ar    1  UNL1        0.0534
      9 C          18.4683   20.1579   -0.5695 C.ar    1  UNL1        0.0003
     10 C          19.0819   19.0279   -1.3420 C.ar    1  UNL1       -0.0216
     11 C          20.1471   18.1801   -0.7122 C.ar    1  UNL1        0.0003
     12 C          18.6304   18.7457   -2.7443 C.3     1  UNL1        0.0310
     13 C          18.3063   21.5699    1.6053 C.2     1  UNL1        0.2490
     14 O          17.5069   21.2857    2.8424 O.2     1  UNL1       -0.2699
     15 N          18.4920   22.9840    1.1408 N.am    1  UNL1       -0.2761
     16 C          17.8784   24.1140    1.9134 C.3     1  UNL1        0.0937
     17 C          18.7340   24.9653    2.8040 C.3     1  UNL1        0.0215
     18 C          19.8231   25.8105    2.2130 C.3     1  UNL1        0.0018
     19 C          19.2914   23.2683   -0.0962 C.3     1  UNL1        0.0937
     20 C          18.7006   24.0991   -1.1966 C.3     1  UNL1        0.0215
     21 C          18.3122   23.4569   -2.4953 C.3     1  UNL1        0.0018
     22 C          24.3539   15.5145    1.0887 C.3     1  UNL1        0.1781
     23 O          25.4554   15.1608    2.0435 O.3     1  UNL1       -0.3777
     24 H          25.2414   14.8246    2.9278 H       1  UNL1        0.2106
     25 C          24.6849   16.0345   -0.2789 C.3     1  UNL1        0.0837
     26 N          24.1872   15.3131   -1.4962 N.4     1  UNL1        0.2520
     27 C          24.5182   15.8330   -2.8637 C.3     1  UNL1        0.1047
     28 C          25.3469   17.0742   -3.0139 C.3     1  UNL1        0.0905
     29 C          25.8446   17.7956   -1.7966 C.3     1  UNL1        0.1269
     30 C          25.5136   17.2757   -0.4290 C.3     1  UNL1        0.0871
     31 H          23.6237   14.4691   -1.3941 H       1  UNL1        0.2034
     32 H          23.8487   14.8226   -2.3240 H       1  UNL1        0.2034
     33 O          26.6733   19.0368   -1.9468 O.3     1  UNL1       -0.3558
     34 C          26.2639   20.0982   -2.9244 C.3     1  UNL1        0.1421
     35 C          25.4320   21.2592   -2.4661 C.3     1  UNL1        0.0346
     36 C          22.5541   14.3344    2.5441 C.3     1  UNL1        0.0487
     37 F          21.5129   10.2150   -0.4469 F       1  UNL1       -0.2041
     38 C          22.1816   10.8109    0.7562 C.ar    1  UNL1        0.1421
     39 C          22.0335   12.2747    1.0486 C.ar    1  UNL1        0.0256
     40 C          22.7023   12.8706    2.2517 C.ar    1  UNL1       -0.0160
     41 C          23.5191   12.0028    3.1626 C.ar    1  UNL1        0.0256
     42 C          23.6672   10.5391    2.8702 C.ar    1  UNL1        0.1421
     43 F          24.4841    9.6712    3.7811 F       1  UNL1       -0.2041
     44 C          22.9985    9.9432    1.6671 C.ar    1  UNL1        0.0592
@<TRIPOS>UNITY_ATOM_ATTR
26 1
charge 1
@<TRIPOS>BOND
     1    37    38    1
     2    38    39   ar
     3    39    40   ar
     4    40    41   ar
     5    41    42   ar
     6    42    43    1
     7    42    44   ar
     8    40    36    1
     9     1    36    1
    10     1     2    1
    11     2     3   am
    12     3     4    2
    13     3     6    1
    14     6     7   ar
    15     7     8   ar
    16     8     9   ar
    17     9    10   ar
    18    10    11   ar
    19    10    12    1
    20     8    13    1
    21    13    14    2
    22    13    15   am
    23    15    16    1
    24    16    17    1
    25    17    18    1
    26    15    19    1
    27    19    20    1
    28    20    21    1
    29     1    22    1
    30    22    23    1
    31    22    25    1
    32    25    26    1
    33    26    27    1
    34    27    28    1
    35    28    29    1
    36    29    33    1
    37    33    34    1
    38    34    35    1
    39    29    30    1
    40    44    38   ar
    41    11     6   ar
    42    25    30    1
    43     2     5    1
    44    23    24    1
    45    26    31    1
    46    26    32    1
@<TRIPOS>MOLECULE
*****
 51 53 0 0 0
SMALL
GASTEIGER

@<TRIPOS>ATOM
      1 C          22.6995   28.0358    1.6797 C.2     1  UNL1        0.2460
      2 O          23.3912   27.9589    3.0084 O.2     1  UNL1       -0.2701
      3 N          21.8348   26.9006    1.2175 N.am    1  UNL1       -0.2969
      4 H          21.3808   26.9510    0.3454 H       1  UNL1        0.1499
      5 C          22.4962   31.7834    0.3897 C.ar    1  UNL1        0.0688
      6 C          23.2185   31.6719   -0.9201 C.ar    1  UNL1        0.0206
      7 C          23.7679   30.3484   -1.3634 C.ar    1  UNL1        0.0548
      8 C          23.5949   29.1363   -0.4968 C.ar    1  UNL1        0.0091
      9 C          22.8725   29.2478    0.8130 C.ar    1  UNL1        0.0548
     10 C          22.3232   30.5714    1.2563 C.ar    1  UNL1        0.0206
     11 C          24.4903   30.2369   -2.6733 C.2     1  UNL1        0.2461
     12 O          24.8746   28.8882   -3.2055 O.2     1  UNL1       -0.2701
     13 N          24.8284   31.4742   -3.4510 N.am    1  UNL1       -0.2987
     14 H          24.5761   32.3595   -3.1017 H       1  UNL1        0.1500
     15 C          25.5507   31.3629   -4.7608 C.3     1  UNL1        0.0944
     16 C          27.0394   31.1803   -4.7832 C.3     1  UNL1        0.0262
     17 C          24.7844   31.4340   -6.0484 C.ar    1  UNL1       -0.0044
     18 C          24.3669   30.1720   -6.7434 C.ar    1  UNL1       -0.0004
     19 C          23.6006   30.2432   -8.0309 C.ar    1  UNL1        0.0294
     20 C          23.2518   31.5763   -8.6234 C.ar    1  UNL1        0.1401
     21 F          22.4855   31.6475   -9.9109 F       1  UNL1       -0.2042
     22 C          23.6693   32.8383   -7.9284 C.ar    1  UNL1        0.0294
     23 C          24.4356   32.7671   -6.6409 C.ar    1  UNL1       -0.0004
     24 N          21.9468   33.1069    0.8330 N.pl3   1  UNL1       -0.1925
     25 C          20.9994   33.1749    1.9938 C.3     1  UNL1        0.1388
     26 S          22.3449   34.3625    0.1154 S.O2    1  UNL1        0.0588
     27 O          21.0757   34.3091   -0.6822 O.2     1  UNL1       -0.1542
     28 O          23.6141   34.4159    0.9129 O.2     1  UNL1       -0.1542
     29 C          22.7430   35.6181   -0.6023 C.3     1  UNL1        0.1999
     30 C          21.6618   25.6885    2.0842 C.3     1  UNL1        0.1316
     31 C          20.2909   25.2763    2.5320 C.3     1  UNL1        0.0520
     32 C          19.3996   24.5041    1.6050 C.ar    1  UNL1       -0.0203
     33 C          19.4548   24.7574    0.1275 C.ar    1  UNL1       -0.0042
     34 C          18.5636   23.9853   -0.7996 C.ar    1  UNL1       -0.0003
     35 C          17.6171   22.9599   -0.2492 C.ar    1  UNL1       -0.0000
     36 C          17.5619   22.7066    1.2282 C.ar    1  UNL1       -0.0003
     37 C          18.4532   23.4788    2.1553 C.ar    1  UNL1       -0.0042
     38 C          22.8597   24.8887    2.5029 C.3     1  UNL1        0.1226
     39 N          23.8622   24.4472    1.4783 N.4     1  UNL1        0.2580
     40 H          23.6108   23.7352    0.7925 H       1  UNL1        0.2039
     41 H          24.5439   24.1470    0.7815 H       1  UNL1        0.2039
     42 C          25.2345   25.0528    1.4620 C.3     1  UNL1        0.1297
     43 C          26.2561   24.6226    2.4726 C.3     1  UNL1        0.0710
     44 C          25.5851   26.0885    0.4353 C.2     1  UNL1        0.2719
     45 O          24.8689   26.1107   -0.8826 O.2     1  UNL1       -0.2690
     46 N          26.6520   27.1019    0.7262 N.am    1  UNL1       -0.2998
     47 H          27.1220   27.0874    1.5911 H       1  UNL1        0.1496
     48 C          27.0026   28.1377   -0.3006 C.3     1  UNL1        0.0895
     49 C          27.2184   29.5627    0.1149 C.3     1  UNL1        0.0196
     50 C          27.1228   29.9447    1.5622 C.3     1  UNL1        0.0017
     51 C          27.5300   30.6059   -0.9171 C.3     1  UNL1        0.0017
@<TRIPOS>UNITY_ATOM_ATTR
39 1
charge 1
@<TRIPOS>BOND
     1    26    27    2
     2    26    28    2
     3    26    24    1
     4    24    25    1
     5    24     5    1
     6     5     6   ar
     7     6     7   ar
     8     7     8   ar
     9     8     9   ar
    10     9    10   ar
    11     9     1    1
    12     1     2    2
    13     1     3   am
    14     3    30    1
    15    30    31    1
    16    31    32    1
    17    32    33   ar
    18    33    34   ar
    19    34    35   ar
    20    35    36   ar
    21    36    37   ar
    22    30    38    1
    23    38    39    1
    24    39    42    1
    25    42    44    1
    26    44    45    2
    27    44    46   am
    28    46    48    1
    29    48    49    1
    30    49    50    1
    31    49    51    1
    32    42    43    1
    33     7    11    1
    34    11    12    2
    35    11    13   am
    36    13    15    1
    37    15    16    1
    38    15    17    1
    39    17    18   ar
    40    18    19   ar
    41    19    20   ar
    42    20    21    1
    43    20    22   ar
    44    22    23   ar
    45    26    29    1
    46    10     5   ar
    47    37    32   ar
    48    23    17   ar
    49     3     4    1
    50    39    40    1
    51    39    41    1
    52    46    47    1
    53    13    14    1
@<TRIPOS>MOLECULE
*****
 51 53 0 0 0
SMALL
GASTEIGER

@<TRIPOS>ATOM
      1 C          22.4935   27.9367    1.5380 C.2     1  UNL1        0.2460
      2 O          23.0171   27.9327    2.9437 O.2     1  UNL1       -0.2701
      3 N          21.8062   26.7212    0.9902 N.am    1  UNL1       -0.2969
      4 H          21.4626   26.7239    0.0676 H       1  UNL1        0.1499
      5 C          22.3466   31.7102    0.3177 C.ar    1  UNL1        0.0688
      6 C          22.9843   31.5956   -1.0351 C.ar    1  UNL1        0.0206
      7 C          23.4585   30.2614   -1.5302 C.ar    1  UNL1        0.0548
      8 C          23.2948   29.0418   -0.6725 C.ar    1  UNL1        0.0091
      9 C          22.6571   29.1564    0.6803 C.ar    1  UNL1        0.0548
     10 C          22.1830   30.4906    1.1754 C.ar    1  UNL1        0.0206
     11 C          24.0962   30.1469   -2.8831 C.2     1  UNL1        0.2461
     12 O          24.8741   28.9162   -3.2438 O.2     1  UNL1       -0.2701
     13 N          23.9561   31.2632   -3.8752 N.am    1  UNL1       -0.2987
     14 H          23.4455   32.0710   -3.6385 H       1  UNL1        0.1500
     15 C          24.5938   31.1487   -5.2281 C.3     1  UNL1        0.0944
     16 C          23.7376   31.0006   -6.4507 C.3     1  UNL1        0.0262
     17 C          26.0878   31.1823   -5.3583 C.ar    1  UNL1       -0.0044
     18 C          26.8626   32.3433   -4.8090 C.ar    1  UNL1       -0.0004
     19 C          28.3565   32.3769   -4.9392 C.ar    1  UNL1        0.0294
     20 C          29.0756   31.2495   -5.6187 C.ar    1  UNL1        0.1401
     21 F          30.5697   31.2831   -5.7489 F       1  UNL1       -0.2042
     22 C          28.3009   30.0885   -6.1680 C.ar    1  UNL1        0.0294
     23 C          26.8069   30.0549   -6.0378 C.ar    1  UNL1       -0.0004
     24 N          21.8725   33.0444    0.8128 N.pl3   1  UNL1       -0.1925
     25 C          20.9715   33.1234    2.0094 C.3     1  UNL1        0.1388
     26 S          22.2993   34.2996    0.1112 S.O2    1  UNL1        0.0588
     27 O          21.0084   34.3118   -0.6524 O.2     1  UNL1       -0.1542
     28 O          23.5903   34.2874    0.8749 O.2     1  UNL1       -0.1542
     29 C          22.7262   35.5549   -0.5903 C.3     1  UNL1        0.1999
     30 C          21.6426   25.5015    1.8480 C.3     1  UNL1        0.1316
     31 C          20.2967   25.1576    2.4137 C.3     1  UNL1        0.0520
     32 C          19.3233   24.3574    1.6000 C.ar    1  UNL1       -0.0203
     33 C          18.3623   23.4283    2.2807 C.ar    1  UNL1       -0.0042
     34 C          17.3889   22.6281    1.4670 C.ar    1  UNL1       -0.0003
     35 C          17.3765   22.7570   -0.0274 C.ar    1  UNL1       -0.0000
     36 C          18.3374   23.6860   -0.7081 C.ar    1  UNL1       -0.0003
     37 C          19.3109   24.4863    0.1056 C.ar    1  UNL1       -0.0042
     38 C          22.8249   24.6259    2.1399 C.3     1  UNL1        0.1226
     39 N          24.1146   25.2366    2.6021 N.4     1  UNL1        0.2580
     40 H          24.1556   25.7259    3.4962 H       1  UNL1        0.2039
     41 H          24.9916   25.6519    2.9165 H       1  UNL1        0.2039
     42 C          25.3440   25.1277    1.7496 C.3     1  UNL1        0.1297
     43 C          26.3792   24.0862    2.0557 C.3     1  UNL1        0.0710
     44 C          25.5383   26.0604    0.5910 C.2     1  UNL1        0.2719
     45 O          24.5832   26.0292   -0.5652 O.2     1  UNL1       -0.2690
     46 N          26.6876   27.0243    0.5887 N.am    1  UNL1       -0.2998
     47 H          27.3144   27.0448    1.3475 H       1  UNL1        0.1496
     48 C          26.8818   27.9570   -0.5700 C.3     1  UNL1        0.0895
     49 C          26.9172   29.4391   -0.3420 C.3     1  UNL1        0.0196
     50 C          27.4001   30.3538   -1.4283 C.3     1  UNL1        0.0017
     51 C          26.4698   30.0066    0.9726 C.3     1  UNL1        0.0017
@<TRIPOS>UNITY_ATOM_ATTR
39 1
charge 1
@<TRIPOS>BOND
     1    26    27    2
     2    26    28    2
     3    26    24    1
     4    24    25    1
     5    24     5    1
     6     5     6   ar
     7     6     7   ar
     8     7     8   ar
     9     8     9   ar
    10     9    10   ar
    11     9     1    1
    12     1     2    2
    13     1     3   am
    14     3    30    1
    15    30    31    1
    16    31    32    1
    17    32    33   ar
    18    33    34   ar
    19    34    35   ar
    20    35    36   ar
    21    36    37   ar
    22    30    38    1
    23    38    39    1
    24    39    42    1
    25    42    44    1
    26    44    45    2
    27    44    46   am
    28    46    48    1
    29    48    49    1
    30    49    50    1
    31    49    51    1
    32    42    43    1
    33     7    11    1
    34    11    12    2
    35    11    13   am
    36    13    15    1
    37    15    16    1
    38    15    17    1
    39    17    18   ar
    40    18    19   ar
    41    19    20   ar
    42    20    21    1
    43    20    22   ar
    44    22    23   ar
    45    26    29    1
    46    10     5   ar
    47    37    32   ar
    48    23    17   ar
    49     3     4    1
    50    39    40    1
    51    39    41    1
    52    46    47    1
    53    13    14    1
@<TRIPOS>MOLECULE
*****
 51 53 0 0 0
SMALL
GASTEIGER

@<TRIPOS>ATOM
      1 C          24.0351   27.7357    1.0113 C.2     1  UNL1        0.2460
      2 O          24.3820   28.0103    2.4446 O.2     1  UNL1       -0.2701
      3 N          23.8955   26.3216    0.5311 N.am    1  UNL1       -0.2969
      4 H          23.6678   26.1413   -0.4096 H       1  UNL1        0.1499
      5 C          22.7087   31.1465   -0.5240 C.ar    1  UNL1        0.0688
      6 C          23.4137   31.1545   -1.8479 C.ar    1  UNL1        0.0206
      7 C          24.3258   30.0229   -2.2189 C.ar    1  UNL1        0.0548
      8 C          24.5330   28.8834   -1.2658 C.ar    1  UNL1        0.0091
      9 C          23.8280   28.8753    0.0582 C.ar    1  UNL1        0.0548
     10 C          22.9159   30.0069    0.4291 C.ar    1  UNL1        0.0206
     11 C          25.0308   30.0310   -3.5429 C.2     1  UNL1        0.2461
     12 O          26.2242   29.1493   -3.7625 O.2     1  UNL1       -0.2701
     13 N          24.5423   30.9208   -4.6473 N.am    1  UNL1       -0.2987
     14 H          23.7590   31.4995   -4.5031 H       1  UNL1        0.1500
     15 C          25.2472   30.9289   -5.9712 C.3     1  UNL1        0.0944
     16 C          26.4776   31.7656   -6.1607 C.3     1  UNL1        0.0262
     17 C          24.7216   30.1003   -7.1058 C.ar    1  UNL1       -0.0044
     18 C          23.4823   30.5271   -7.8351 C.ar    1  UNL1       -0.0004
     19 C          22.9569   29.6985   -8.9697 C.ar    1  UNL1        0.0294
     20 C          23.6707   28.4430   -9.3749 C.ar    1  UNL1        0.1401
     21 F          23.1451   27.6144  -10.5095 F       1  UNL1       -0.2042
     22 C          24.9099   28.0161   -8.6456 C.ar    1  UNL1        0.0294
     23 C          25.4354   28.8448   -7.5111 C.ar    1  UNL1       -0.0004
     24 N          21.7966   32.2781   -0.1531 N.pl3   1  UNL1       -0.1925
     25 C          20.4050   31.9927    0.3285 C.3     1  UNL1        0.1388
     26 S          22.2761   33.6951   -0.2637 S.O2    1  UNL1        0.0588
     27 O          23.2082   33.4697    0.8897 O.2     1  UNL1       -0.1542
     28 O          21.3440   33.9204   -1.4171 O.2     1  UNL1       -0.1542
     29 C          22.7557   35.1121   -0.3743 C.3     1  UNL1        0.1999
     30 C          24.1026   25.1819    1.4843 C.3     1  UNL1        0.1316
     31 C          25.4500   24.5321    1.5949 C.3     1  UNL1        0.0520
     32 C          26.2871   24.3277    0.3671 C.ar    1  UNL1       -0.0203
     33 C          27.5572   25.1053    0.1873 C.ar    1  UNL1       -0.0042
     34 C          28.3943   24.9009   -1.0405 C.ar    1  UNL1       -0.0003
     35 C          27.9613   23.9189   -2.0885 C.ar    1  UNL1       -0.0000
     36 C          26.6913   23.1414   -1.9087 C.ar    1  UNL1       -0.0003
     37 C          25.8541   23.3458   -0.6809 C.ar    1  UNL1       -0.0042
     38 C          22.9623   24.6921    2.3268 C.3     1  UNL1        0.1226
     39 N          22.2142   25.6496    3.2063 N.4     1  UNL1        0.2580
     40 H          22.5355   25.8251    4.1583 H       1  UNL1        0.2039
     41 H          21.7055   26.3007    3.8043 H       1  UNL1        0.2039
     42 C          20.9937   26.3492    2.6857 C.3     1  UNL1        0.1297
     43 C          20.9439   27.8480    2.6555 C.3     1  UNL1        0.0710
     44 C          19.8230   25.5499    2.1953 C.2     1  UNL1        0.2719
     45 O          18.8249   25.0044    3.1732 O.2     1  UNL1       -0.2690
     46 N          19.6504   25.2961    0.7271 N.am    1  UNL1       -0.2998
     47 H          20.3054   25.6541    0.0852 H       1  UNL1        0.1496
     48 C          18.4796   24.4967    0.2367 C.3     1  UNL1        0.0895
     49 C          18.6783   23.4396   -0.8088 C.3     1  UNL1        0.0196
     50 C          18.5275   23.7833   -2.2610 C.3     1  UNL1        0.0017
     51 C          19.0278   22.0387   -0.4019 C.3     1  UNL1        0.0017
@<TRIPOS>UNITY_ATOM_ATTR
39 1
charge 1
@<TRIPOS>BOND
     1    26    27    2
     2    26    28    2
     3    26    24    1
     4    24    25    1
     5    24     5    1
     6     5     6   ar
     7     6     7   ar
     8     7     8   ar
     9     8     9   ar
    10     9    10   ar
    11     9     1    1
    12     1     2    2
    13     1     3   am
    14     3    30    1
    15    30    31    1
    16    31    32    1
    17    32    33   ar
    18    33    34   ar
    19    34    35   ar
    20    35    36   ar
    21    36    37   ar
    22    30    38    1
    23    38    39    1
    24    39    42    1
    25    42    44    1
    26    44    45    2
    27    44    46   am
    28    46    48    1
    29    48    49    1
    30    49    50    1
    31    49    51    1
    32    42    43    1
    33     7    11    1
    34    11    12    2
    35    11    13   am
    36    13    15    1
    37    15    16    1
    38    15    17    1
    39    17    18   ar
    40    18    19   ar
    41    19    20   ar
    42    20    21    1
    43    20    22   ar
    44    22    23   ar
    45    26    29    1
    46    10     5   ar
    47    37    32   ar
    48    23    17   ar
    49     3     4    1
    50    39    40    1
    51    39    41    1
    52    46    47    1
    53    13    14    1
@<TRIPOS>MOLECULE
*****
 51 53 0 0 0
SMALL
GASTEIGER

@<TRIPOS>ATOM
      1 C          24.0741   28.1588    1.2715 C.2     1  UNL1        0.2460
      2 O          24.3001   28.3019    2.7475 O.2     1  UNL1       -0.2701
      3 N          24.0557   26.7965    0.6442 N.am    1  UNL1       -0.2969
      4 H          23.9074   26.7026   -0.3246 H       1  UNL1        0.1499
      5 C          22.8719   31.7576    0.1081 C.ar    1  UNL1        0.0688
      6 C          23.4513   31.8169   -1.2742 C.ar    1  UNL1        0.0206
      7 C          24.2384   30.6568   -1.8079 C.ar    1  UNL1        0.0548
      8 C          24.4460   29.4375   -0.9594 C.ar    1  UNL1        0.0091
      9 C          23.8665   29.3782    0.4229 C.ar    1  UNL1        0.0548
     10 C          23.0795   30.5383    0.9566 C.ar    1  UNL1        0.0206
     11 C          24.8178   30.7162   -3.1903 C.2     1  UNL1        0.2461
     12 O          24.7407   31.9879   -3.9819 O.2     1  UNL1       -0.2701
     13 N          25.4744   29.5037   -3.7809 N.am    1  UNL1       -0.2987
     14 H          25.5250   28.6690   -3.2613 H       1  UNL1        0.1500
     15 C          26.0538   29.5630   -5.1632 C.3     1  UNL1        0.0944
     16 C          25.1525   29.4724   -6.3588 C.3     1  UNL1        0.0262
     17 C          27.5346   29.7129   -5.3499 C.ar    1  UNL1       -0.0044
     18 C          28.3127   28.6457   -6.0609 C.ar    1  UNL1       -0.0004
     19 C          29.7935   28.7957   -6.2476 C.ar    1  UNL1        0.0294
     20 C          30.4961   30.0129   -5.7233 C.ar    1  UNL1        0.1401
     21 F          31.9769   30.1628   -5.9101 F       1  UNL1       -0.2042
     22 C          29.7179   31.0801   -5.0124 C.ar    1  UNL1        0.0294
     23 C          28.2372   30.9301   -4.8257 C.ar    1  UNL1       -0.0004
     24 N          22.0849   32.9177    0.6418 N.pl3   1  UNL1       -0.1925
     25 C          21.0621   32.6989    1.7170 C.3     1  UNL1        0.1388
     26 S          22.3206   34.2965    0.1004 S.O2    1  UNL1        0.0588
     27 O          23.5816   34.3974    0.9064 O.2     1  UNL1       -0.1542
     28 O          21.0596   34.1956   -0.7056 O.2     1  UNL1       -0.1542
     29 C          22.5564   35.6754   -0.4410 C.3     1  UNL1        0.1999
     30 C          24.2633   25.5771    1.4928 C.3     1  UNL1        0.1316
     31 C          25.6337   24.9826    1.6290 C.3     1  UNL1        0.0520
     32 C          26.4360   24.6590    0.4037 C.ar    1  UNL1       -0.0203
     33 C          27.7964   25.2628    0.2168 C.ar    1  UNL1       -0.0042
     34 C          28.5987   24.9392   -1.0085 C.ar    1  UNL1       -0.0003
     35 C          28.0407   24.0118   -2.0470 C.ar    1  UNL1       -0.0000
     36 C          26.6804   23.4080   -1.8603 C.ar    1  UNL1       -0.0003
     37 C          25.8780   23.7316   -0.6349 C.ar    1  UNL1       -0.0042
     38 C          23.1004   24.9523    2.2051 C.3     1  UNL1        0.1226
     39 N          22.2556   25.7779    3.1294 N.4     1  UNL1        0.2580
     40 H          22.5373   25.9043    4.1016 H       1  UNL1        0.2039
     41 H          21.6811   26.3394    3.7580 H       1  UNL1        0.2039
     42 C          20.9965   26.4178    2.6242 C.3     1  UNL1        0.1297
     43 C          20.8967   27.9120    2.5386 C.3     1  UNL1        0.0710
     44 C          19.8372   25.5634    2.2045 C.2     1  UNL1        0.2719
     45 O          18.8909   25.0240    3.2359 O.2     1  UNL1       -0.2690
     46 N          19.6242   25.2485    0.7535 N.am    1  UNL1       -0.2998
     47 H          20.2453   25.6025    0.0766 H       1  UNL1        0.1496
     48 C          18.4649   24.3941    0.3339 C.3     1  UNL1        0.0895
     49 C          18.6241   23.4130   -0.7896 C.3     1  UNL1        0.0196
     50 C          18.6190   23.8930   -2.2108 C.3     1  UNL1        0.0017
     51 C          18.7885   21.9520   -0.4920 C.3     1  UNL1        0.0017
@<TRIPOS>UNITY_ATOM_ATTR
39 1
charge 1
@<TRIPOS>BOND
     1    26    27    2
     2    26    28    2
     3    26    24    1
     4    24    25    1
     5    24     5    1
     6     5     6   ar
     7     6     7   ar
     8     7     8   ar
     9     8     9   ar
    10     9    10   ar
    11     9     1    1
    12     1     2    2
    13     1     3   am
    14     3    30    1
    15    30    31    1
    16    31    32    1
    17    32    33   ar
    18    33    34   ar
    19    34    35   ar
    20    35    36   ar
    21    36    37   ar
    22    30    38    1
    23    38    39    1
    24    39    42    1
    25    42    44    1
    26    44    45    2
    27    44    46   am
    28    46    48    1
    29    48    49    1
    30    49    50    1
    31    49    51    1
    32    42    43    1
    33     7    11    1
    34    11    12    2
    35    11    13   am
    36    13    15    1
    37    15    16    1
    38    15    17    1
    39    17    18   ar
    40    18    19   ar
    41    19    20   ar
    42    20    21    1
    43    20    22   ar
    44    22    23   ar
    45    26    29    1
    46    10     5   ar
    47    37    32   ar
    48    23    17   ar
    49     3     4    1
    50    39    40    1
    51    39    41    1
    52    46    47    1
    53    13    14    1
@<TRIPOS>MOLECULE
*****
 51 53 0 0 0
SMALL
GASTEIGER

@<TRIPOS>ATOM
      1 C          23.5097   28.0607    1.3544 C.2     1  UNL1        0.2460
      2 O          23.9925   28.2713    2.7589 O.2     1  UNL1       -0.2701
      3 N          23.2284   26.6734    0.8582 N.am    1  UNL1       -0.2969
      4 H          22.9115   26.5352   -0.0636 H       1  UNL1        0.1499
      5 C          22.4046   31.6397    0.0431 C.ar    1  UNL1        0.0688
      6 C          22.9052   31.5908   -1.3701 C.ar    1  UNL1        0.0206
      7 C          23.6072   30.3652   -1.8751 C.ar    1  UNL1        0.0548
      8 C          23.8087   29.1885   -0.9670 C.ar    1  UNL1        0.0091
      9 C          23.3082   29.2374    0.4462 C.ar    1  UNL1        0.0548
     10 C          22.6061   30.4630    0.9512 C.ar    1  UNL1        0.0206
     11 C          24.1077   30.3163   -3.2883 C.2     1  UNL1        0.2461
     12 O          24.9218   29.1463   -3.7556 O.2     1  UNL1       -0.2701
     13 N          23.7942   31.4374   -4.2342 N.am    1  UNL1       -0.2987
     14 H          23.2598   32.2053   -3.9275 H       1  UNL1        0.1500
     15 C          24.2946   31.3886   -5.6474 C.3     1  UNL1        0.0944
     16 C          23.5631   30.5762   -6.6745 C.3     1  UNL1        0.0262
     17 C          25.5267   32.1522   -6.0335 C.ar    1  UNL1       -0.0044
     18 C          25.4871   33.1033   -7.1927 C.ar    1  UNL1       -0.0004
     19 C          26.7191   33.8668   -7.5787 C.ar    1  UNL1        0.0294
     20 C          27.9908   33.6792   -6.8056 C.ar    1  UNL1        0.1401
     21 F          29.2229   34.4427   -7.1918 F       1  UNL1       -0.2042
     22 C          28.0304   32.7280   -5.6465 C.ar    1  UNL1        0.0294
     23 C          26.7984   31.9645   -5.2604 C.ar    1  UNL1       -0.0004
     24 N          21.7026   32.8653    0.5481 N.pl3   1  UNL1       -0.1925
     25 C          20.5265   32.7300    1.4692 C.3     1  UNL1        0.1388
     26 S          22.1766   34.2262    0.1320 S.O2    1  UNL1        0.0588
     27 O          23.3669   34.0874    1.0342 O.2     1  UNL1       -0.1542
     28 O          20.9863   34.3649   -0.7702 O.2     1  UNL1       -0.1542
     29 C          22.6507   35.5872   -0.2841 C.3     1  UNL1        0.1999
     30 C          23.4299   25.4967    1.7664 C.3     1  UNL1        0.1316
     31 C          22.2948   24.9977    2.6104 C.3     1  UNL1        0.0520
     32 C          20.9401   24.7925    2.0000 C.ar    1  UNL1       -0.0203
     33 C          19.9318   25.9029    2.0215 C.ar    1  UNL1       -0.0042
     34 C          18.5771   25.6977    1.4110 C.ar    1  UNL1       -0.0003
     35 C          18.2306   24.3821    0.7792 C.ar    1  UNL1       -0.0000
     36 C          19.2388   23.2718    0.7577 C.ar    1  UNL1       -0.0003
     37 C          20.5936   23.4769    1.3682 C.ar    1  UNL1       -0.0042
     38 C          24.7665   24.8190    1.8305 C.3     1  UNL1        0.1226
     39 N          25.9406   25.5317    2.4335 N.4     1  UNL1        0.2580
     40 H          26.0390   25.5851    3.4473 H       1  UNL1        0.2039
     41 H          26.7390   26.0163    2.8435 H       1  UNL1        0.2039
     42 C          26.9700   26.1658    1.5456 C.3     1  UNL1        0.1297
     43 C          27.7712   25.3183    0.6023 C.3     1  UNL1        0.0710
     44 C          27.1981   27.6472    1.6010 C.2     1  UNL1        0.2719
     45 O          27.3915   28.3274    2.9239 O.2     1  UNL1       -0.2690
     46 N          27.2328   28.4487    0.3335 N.am    1  UNL1       -0.2998
     47 H          27.1059   28.0023   -0.5348 H       1  UNL1        0.1496
     48 C          27.4610   29.9302    0.3890 C.3     1  UNL1        0.0895
     49 C          27.6418   30.7092   -0.8801 C.3     1  UNL1        0.0196
     50 C          27.9729   32.1710   -0.8221 C.3     1  UNL1        0.0017
     51 C          27.4916   30.0263   -2.2072 C.3     1  UNL1        0.0017
@<TRIPOS>UNITY_ATOM_ATTR
39 1
charge 1
@<TRIPOS>BOND
     1    26    27    2
     2    26    28    2
     3    26    24    1
     4    24    25    1
     5    24     5    1
     6     5     6   ar
     7     6     7   ar
     8     7     8   ar
     9     8     9   ar
    10     9    10   ar
    11     9     1    1
    12     1     2    2
    13     1     3   am
    14     3    30    1
    15    30    31    1
    16    31    32    1
    17    32    33   ar
    18    33    34   ar
    19    34    35   ar
    20    35    36   ar
    21    36    37   ar
    22    30    38    1
    23    38    39    1
    24    39    42    1
    25    42    44    1
    26    44    45    2
    27    44    46   am
    28    46    48    1
    29    48    49    1
    30    49    50    1
    31    49    51    1
    32    42    43    1
    33     7    11    1
    34    11    12    2
    35    11    13   am
    36    13    15    1
    37    15    16    1
    38    15    17    1
    39    17    18   ar
    40    18    19   ar
    41    19    20   ar
    42    20    21    1
    43    20    22   ar
    44    22    23   ar
    45    26    29    1
    46    10     5   ar
    47    37    32   ar
    48    23    17   ar
    49     3     4    1
    50    39    40    1
    51    39    41    1
    52    46    47    1
    53    13    14    1
@<TRIPOS>MOLECULE
*****
 51 53 0 0 0
SMALL
GASTEIGER

@<TRIPOS>ATOM
      1 C          25.5646   23.2157   -0.4031 C.2     1  UNL1        0.2460
      2 O          26.1898   24.1691   -1.3778 O.2     1  UNL1       -0.2701
      3 N          25.1668   23.6925    0.9623 N.am    1  UNL1       -0.2969
      4 H          24.7564   23.0667    1.6020 H       1  UNL1        0.1499
      5 C          25.6582   19.8354   -2.4805 C.ar    1  UNL1        0.0688
      6 C          24.8825   18.9250   -1.5754 C.ar    1  UNL1        0.0206
      7 C          24.3340   19.4447   -0.2796 C.ar    1  UNL1        0.0548
      8 C          24.5614   20.8749    0.1112 C.ar    1  UNL1        0.0091
      9 C          25.3372   21.7854   -0.7939 C.ar    1  UNL1        0.0548
     10 C          25.8856   21.2656   -2.0897 C.ar    1  UNL1        0.0206
     11 C          23.5582   18.5341    0.6254 C.2     1  UNL1        0.2461
     12 O          23.4090   18.8710    2.0795 O.2     1  UNL1       -0.2701
     13 N          22.9316   17.2867    0.0764 N.am    1  UNL1       -0.2987
     14 H          23.0296   17.0657   -0.8780 H       1  UNL1        0.1500
     15 C          22.1559   16.3762    0.9813 C.3     1  UNL1        0.0944
     16 C          20.6918   16.6121    1.2067 C.3     1  UNL1        0.0262
     17 C          22.8442   15.2297    1.6610 C.ar    1  UNL1       -0.0044
     18 C          24.3173   15.2955    1.9354 C.ar    1  UNL1       -0.0004
     19 C          25.0056   14.1490    2.6150 C.ar    1  UNL1        0.0294
     20 C          24.2206   12.9368    3.0203 C.ar    1  UNL1        0.1401
     21 F          24.9089   11.7903    3.6999 F       1  UNL1       -0.2042
     22 C          22.7474   12.8710    2.7459 C.ar    1  UNL1        0.0294
     23 C          22.0592   14.0174    2.0663 C.ar    1  UNL1       -0.0004
     24 N          26.2067   19.3157   -3.7763 N.pl3   1  UNL1       -0.1925
     25 C          25.3960   18.3650   -4.6062 C.3     1  UNL1        0.1388
     26 S          27.5658   19.7467   -4.2421 S.O2    1  UNL1        0.0588
     27 O          26.9325   20.5945   -5.3051 O.2     1  UNL1       -0.1542
     28 O          28.1990   18.8988   -3.1791 O.2     1  UNL1       -0.1542
     29 C          28.9249   20.1777   -4.7080 C.3     1  UNL1        0.1999
     30 C          25.3942   25.1228    1.3530 C.3     1  UNL1        0.1316
     31 C          26.7915   25.6565    1.4653 C.3     1  UNL1        0.0520
     32 C          27.0673   27.1025    1.1774 C.ar    1  UNL1       -0.0203
     33 C          26.9816   27.6168   -0.2291 C.ar    1  UNL1       -0.0042
     34 C          27.2575   29.0628   -0.5170 C.ar    1  UNL1       -0.0003
     35 C          27.6191   29.9946    0.6015 C.ar    1  UNL1       -0.0000
     36 C          27.7048   29.4803    2.0080 C.ar    1  UNL1       -0.0003
     37 C          27.4289   28.0342    2.2960 C.ar    1  UNL1       -0.0042
     38 C          24.2242   26.0193    1.6315 C.3     1  UNL1        0.1226
     39 N          23.2218   25.6400    2.6809 N.4     1  UNL1        0.2580
     40 H          23.5122   25.5495    3.6545 H       1  UNL1        0.2039
     41 H          22.5402   25.3821    3.3945 H       1  UNL1        0.2039
     42 C          21.7924   25.3939    2.2985 C.3     1  UNL1        0.1297
     43 C          20.7959   26.5133    2.3612 C.3     1  UNL1        0.0710
     44 C          21.3595   24.0285    1.8535 C.2     1  UNL1        0.2719
     45 O          22.3857   23.0065    1.4629 O.2     1  UNL1       -0.2690
     46 N          19.9003   23.6850    1.7990 N.am    1  UNL1       -0.2998
     47 H          19.2268   24.3557    2.0554 H       1  UNL1        0.1496
     48 C          19.4674   22.3195    1.3539 C.3     1  UNL1        0.0895
     49 C          18.0586   21.8640    1.5941 C.3     1  UNL1        0.0196
     50 C          17.7610   20.8996    2.7038 C.3     1  UNL1        0.0017
     51 C          16.9473   22.3729    0.7245 C.3     1  UNL1        0.0017
@<TRIPOS>UNITY_ATOM_ATTR
39 1
charge 1
@<TRIPOS>BOND
     1    26    27    2
     2    26    28    2
     3    26    24    1
     4    24    25    1
     5    24     5    1
     6     5     6   ar
     7     6     7   ar
     8     7     8   ar
     9     8     9   ar
    10     9    10   ar
    11     9     1    1
    12     1     2    2
    13     1     3   am
    14     3    30    1
    15    30    31    1
    16    31    32    1
    17    32    33   ar
    18    33    34   ar
    19    34    35   ar
    20    35    36   ar
    21    36    37   ar
    22    30    38    1
    23    38    39    1
    24    39    42    1
    25    42    44    1
    26    44    45    2
    27    44    46   am
    28    46    48    1
    29    48    49    1
    30    49    50    1
    31    49    51    1
    32    42    43    1
    33     7    11    1
    34    11    12    2
    35    11    13   am
    36    13    15    1
    37    15    16    1
    38    15    17    1
    39    17    18   ar
    40    18    19   ar
    41    19    20   ar
    42    20    21    1
    43    20    22   ar
    44    22    23   ar
    45    26    29    1
    46    10     5   ar
    47    37    32   ar
    48    23    17   ar
    49     3     4    1
    50    39    40    1
    51    39    41    1
    52    46    47    1
    53    13    14    1
@<TRIPOS>MOLECULE
*****
 51 53 0 0 0
SMALL
GASTEIGER

@<TRIPOS>ATOM
      1 C          24.4293   20.7744   -1.0427 C.2     1  UNL1        0.2460
      2 O          23.1716   20.7485   -0.2258 O.2     1  UNL1       -0.2701
      3 N          24.8024   19.5892   -1.8830 N.am    1  UNL1       -0.2969
      4 H          25.6279   19.6062   -2.4192 H       1  UNL1        0.1499
      5 C          27.3352   23.3141   -1.9679 C.ar    1  UNL1        0.0688
      6 C          27.0833   24.4077   -0.9727 C.ar    1  UNL1        0.0206
      7 C          25.9468   24.2903   -0.0008 C.ar    1  UNL1        0.0548
      8 C          25.0621   23.0792   -0.0242 C.ar    1  UNL1        0.0091
      9 C          25.3140   21.9856   -1.0194 C.ar    1  UNL1        0.0548
     10 C          26.4505   22.1030   -1.9912 C.ar    1  UNL1        0.0206
     11 C          25.6950   25.3840    0.9944 C.2     1  UNL1        0.2461
     12 O          25.2040   25.0469    2.3711 O.2     1  UNL1       -0.2701
     13 N          25.9341   26.8148    0.6129 N.am    1  UNL1       -0.2987
     14 H          26.2564   27.0361   -0.2907 H       1  UNL1        0.1500
     15 C          25.6823   27.9085    1.6081 C.3     1  UNL1        0.0944
     16 C          26.6912   28.1932    2.6810 C.3     1  UNL1        0.0262
     17 C          24.4216   28.7176    1.5304 C.ar    1  UNL1       -0.0044
     18 C          23.1181   28.1192    1.9694 C.ar    1  UNL1       -0.0004
     19 C          21.8575   28.9283    1.8916 C.ar    1  UNL1        0.0294
     20 C          21.9003   30.3358    1.3749 C.ar    1  UNL1        0.1401
     21 F          20.6396   31.1450    1.2972 F       1  UNL1       -0.2042
     22 C          23.2038   30.9343    0.9359 C.ar    1  UNL1        0.0294
     23 C          24.4644   30.1252    1.0136 C.ar    1  UNL1       -0.0004
     24 N          28.4717   23.4315   -2.9398 N.pl3   1  UNL1       -0.1925
     25 C          28.4950   22.5783   -4.1732 C.3     1  UNL1        0.1388
     26 S          29.5849   24.4022   -2.6782 S.O2    1  UNL1        0.0588
     27 O          28.9624   25.3742   -3.6361 O.2     1  UNL1       -0.1542
     28 O          30.2074   23.4302   -1.7203 O.2     1  UNL1       -0.1542
     29 C          30.6982   25.3730   -2.4167 C.3     1  UNL1        0.1999
     30 C          23.9177   18.3781   -1.9064 C.3     1  UNL1        0.1316
     31 C          22.8342   18.2605   -2.9370 C.3     1  UNL1        0.0520
     32 C          21.4566   17.8277   -2.5308 C.ar    1  UNL1       -0.0203
     33 C          20.5896   18.7466   -1.7221 C.ar    1  UNL1       -0.0042
     34 C          19.2121   18.3138   -1.3160 C.ar    1  UNL1       -0.0003
     35 C          18.7015   16.9620   -1.7185 C.ar    1  UNL1       -0.0000
     36 C          19.5684   16.0431   -2.5271 C.ar    1  UNL1       -0.0003
     37 C          20.9460   16.4759   -2.9333 C.ar    1  UNL1       -0.0042
     38 C          24.1166   17.2845   -0.8992 C.3     1  UNL1        0.1226
     39 N          23.8174   17.5352    0.5491 N.4     1  UNL1        0.2580
     40 H          24.5282   17.9486    1.1526 H       1  UNL1        0.2039
     41 H          23.6139   17.7057    1.5339 H       1  UNL1        0.2039
     42 C          22.4728   17.1780    1.1099 C.3     1  UNL1        0.1297
     43 C          21.7967   15.9080    0.6860 C.3     1  UNL1        0.0710
     44 C          21.8044   18.0909    2.0947 C.2     1  UNL1        0.2719
     45 O          22.5270   19.3024    2.6046 O.2     1  UNL1       -0.2690
     46 N          20.4132   17.7922    2.5696 N.am    1  UNL1       -0.2998
     47 H          19.9389   16.9971    2.2350 H       1  UNL1        0.1496
     48 C          19.7448   18.7052    3.5545 C.3     1  UNL1        0.0895
     49 C          18.8117   19.7756    3.0712 C.3     1  UNL1        0.0196
     50 C          19.0203   20.3999    1.7233 C.3     1  UNL1        0.0017
     51 C          17.6700   20.2218    3.9358 C.3     1  UNL1        0.0017
@<TRIPOS>UNITY_ATOM_ATTR
39 1
charge 1
@<TRIPOS>BOND
     1    26    27    2
     2    26    28    2
     3    26    24    1
     4    24    25    1
     5    24     5    1
     6     5     6   ar
     7     6     7   ar
     8     7     8   ar
     9     8     9   ar
    10     9    10   ar
    11     9     1    1
    12     1     2    2
    13     1     3   am
    14     3    30    1
    15    30    31    1
    16    31    32    1
    17    32    33   ar
    18    33    34   ar
    19    34    35   ar
    20    35    36   ar
    21    36    37   ar
    22    30    38    1
    23    38    39    1
    24    39    42    1
    25    42    44    1
    26    44    45    2
    27    44    46   am
    28    46    48    1
    29    48    49    1
    30    49    50    1
    31    49    51    1
    32    42    43    1
    33     7    11    1
    34    11    12    2
    35    11    13   am
    36    13    15    1
    37    15    16    1
    38    15    17    1
    39    17    18   ar
    40    18    19   ar
    41    19    20   ar
    42    20    21    1
    43    20    22   ar
    44    22    23   ar
    45    26    29    1
    46    10     5   ar
    47    37    32   ar
    48    23    17   ar
    49     3     4    1
    50    39    40    1
    51    39    41    1
    52    46    47    1
    53    13    14    1
@<TRIPOS>MOLECULE
*****
 51 53 0 0 0
SMALL
GASTEIGER

@<TRIPOS>ATOM
      1 C          26.0113   23.3606   -0.7157 C.2     1  UNL1        0.2460
      2 O          26.4361   23.4021    0.7223 O.2     1  UNL1       -0.2701
      3 N          26.0463   24.6103   -1.5444 N.am    1  UNL1       -0.2969
      4 H          25.7675   24.5830   -2.4883 H       1  UNL1        0.1499
      5 C          25.7092   20.2894   -3.2111 C.ar    1  UNL1        0.0688
      6 C          24.6323   19.4866   -2.5434 C.ar    1  UNL1        0.0206
      7 C          24.0151   19.9751   -1.2666 C.ar    1  UNL1        0.0548
      8 C          24.4747   21.2664   -0.6573 C.ar    1  UNL1        0.0091
      9 C          25.5516   22.0692   -1.3249 C.ar    1  UNL1        0.0548
     10 C          26.1688   21.5807   -2.6018 C.ar    1  UNL1        0.0206
     11 C          22.9382   19.1722   -0.5989 C.2     1  UNL1        0.2461
     12 O          23.2930   18.1916    0.4793 O.2     1  UNL1       -0.2701
     13 N          21.5065   19.3499   -1.0096 N.am    1  UNL1       -0.2987
     14 H          21.2736   19.9935   -1.7173 H       1  UNL1        0.1500
     15 C          20.4295   18.5471   -0.3420 C.3     1  UNL1        0.0944
     16 C          19.9584   17.2640   -0.9599 C.3     1  UNL1        0.0262
     17 C          19.8237   19.0273    0.9435 C.ar    1  UNL1       -0.0044
     18 C          19.0400   20.3060    0.9716 C.ar    1  UNL1       -0.0004
     19 C          18.4342   20.7862    2.2571 C.ar    1  UNL1        0.0294
     20 C          18.6121   19.9877    3.5144 C.ar    1  UNL1        0.1401
     21 F          18.0063   20.4679    4.7999 F       1  UNL1       -0.2042
     22 C          19.3958   18.7090    3.4862 C.ar    1  UNL1        0.0294
     23 C          20.0016   18.2289    2.2008 C.ar    1  UNL1       -0.0004
     24 N          26.3264   19.8009   -4.4880 N.pl3   1  UNL1       -0.1925
     25 C          27.7549   19.3438   -4.5036 C.3     1  UNL1        0.1388
     26 S          25.5151   19.7696   -5.7492 S.O2    1  UNL1        0.0588
     27 O          25.6915   21.2516   -5.8994 O.2     1  UNL1       -0.1542
     28 O          25.3388   18.2877   -5.5990 O.2     1  UNL1       -0.1542
     29 C          24.7038   19.7384   -7.0105 C.3     1  UNL1        0.1999
     30 C          26.5060   25.9017   -0.9352 C.3     1  UNL1        0.1316
     31 C          27.9165   26.3682   -1.1417 C.3     1  UNL1        0.0520
     32 C          28.8714   25.5363   -1.9455 C.ar    1  UNL1       -0.0203
     33 C          29.6189   24.4114   -1.2930 C.ar    1  UNL1       -0.0042
     34 C          30.5738   23.5795   -2.0968 C.ar    1  UNL1       -0.0003
     35 C          30.7813   23.8726   -3.5532 C.ar    1  UNL1       -0.0000
     36 C          30.0338   24.9975   -4.2058 C.ar    1  UNL1       -0.0003
     37 C          29.0789   25.8294   -3.4019 C.ar    1  UNL1       -0.0042
     38 C          25.5550   26.7265   -0.1195 C.3     1  UNL1        0.1226
     39 N          25.1908   26.2960    1.2704 N.4     1  UNL1        0.2580
     40 H          25.9015   25.8963    1.8833 H       1  UNL1        0.2039
     41 H          24.9431   26.0032    2.2156 H       1  UNL1        0.2039
     42 C          23.7814   26.4531    1.7591 C.3     1  UNL1        0.1297
     43 C          23.3474   27.7400    2.3958 C.3     1  UNL1        0.0710
     44 C          22.8059   25.3232    1.6112 C.2     1  UNL1        0.2719
     45 O          23.3039   23.9136    1.4882 O.2     1  UNL1       -0.2690
     46 N          21.3325   25.6029    1.5861 N.am    1  UNL1       -0.2998
     47 H          21.0056   26.5281    1.6668 H       1  UNL1        0.1496
     48 C          20.3570   24.4730    1.4381 C.3     1  UNL1        0.0895
     49 C          19.0457   24.7000    0.7459 C.3     1  UNL1        0.0196
     50 C          18.7751   24.0516   -0.5793 C.3     1  UNL1        0.0017
     51 C          18.0051   25.5754    1.3791 C.3     1  UNL1        0.0017
@<TRIPOS>UNITY_ATOM_ATTR
39 1
charge 1
@<TRIPOS>BOND
     1    26    27    2
     2    26    28    2
     3    26    24    1
     4    24    25    1
     5    24     5    1
     6     5     6   ar
     7     6     7   ar
     8     7     8   ar
     9     8     9   ar
    10     9    10   ar
    11     9     1    1
    12     1     2    2
    13     1     3   am
    14     3    30    1
    15    30    31    1
    16    31    32    1
    17    32    33   ar
    18    33    34   ar
    19    34    35   ar
    20    35    36   ar
    21    36    37   ar
    22    30    38    1
    23    38    39    1
    24    39    42    1
    25    42    44    1
    26    44    45    2
    27    44    46   am
    28    46    48    1
    29    48    49    1
    30    49    50    1
    31    49    51    1
    32    42    43    1
    33     7    11    1
    34    11    12    2
    35    11    13   am
    36    13    15    1
    37    15    16    1
    38    15    17    1
    39    17    18   ar
    40    18    19   ar
    41    19    20   ar
    42    20    21    1
    43    20    22   ar
    44    22    23   ar
    45    26    29    1
    46    10     5   ar
    47    37    32   ar
    48    23    17   ar
    49     3     4    1
    50    39    40    1
    51    39    41    1
    52    46    47    1
    53    13    14    1
@<TRIPOS>MOLECULE
*****
 51 53 0 0 0
SMALL
GASTEIGER

@<TRIPOS>ATOM
      1 C          23.3394   28.1139    1.4104 C.2     1  UNL1        0.2460
      2 O          23.8654   28.2482    2.8087 O.2     1  UNL1       -0.2701
      3 N          22.8273   26.7900    0.9257 N.am    1  UNL1       -0.2969
      4 H          22.4821   26.7018    0.0079 H       1  UNL1        0.1499
      5 C          22.6455   31.7648    0.0178 C.ar    1  UNL1        0.0688
      6 C          23.2978   31.6827   -1.3304 C.ar    1  UNL1        0.0206
      7 C          23.9640   30.4109   -1.7650 C.ar    1  UNL1        0.0548
      8 C          23.9779   29.2213   -0.8515 C.ar    1  UNL1        0.0091
      9 C          23.3256   29.3035    0.4967 C.ar    1  UNL1        0.0548
     10 C          22.6594   30.5752    0.9314 C.ar    1  UNL1        0.0206
     11 C          24.6164   30.3288   -3.1133 C.2     1  UNL1        0.2461
     12 O          25.0413   28.9987   -3.6611 O.2     1  UNL1       -0.2701
     13 N          24.8438   31.5769   -3.9137 N.am    1  UNL1       -0.2987
     14 H          24.5649   32.4499   -3.5541 H       1  UNL1        0.1500
     15 C          25.4961   31.4948   -5.2619 C.3     1  UNL1        0.0944
     16 C          26.9904   31.4203   -5.3688 C.3     1  UNL1        0.0262
     17 C          24.6541   31.4873   -6.5033 C.ar    1  UNL1       -0.0044
     18 C          24.2725   32.7815   -7.1586 C.ar    1  UNL1       -0.0004
     19 C          23.4306   32.7739   -8.3999 C.ar    1  UNL1        0.0294
     20 C          22.9701   31.4721   -8.9860 C.ar    1  UNL1        0.1401
     21 F          22.1281   31.4646  -10.2274 F       1  UNL1       -0.2042
     22 C          23.3517   30.1779   -8.3306 C.ar    1  UNL1        0.0294
     23 C          24.1936   30.1855   -7.0893 C.ar    1  UNL1       -0.0004
     24 N          21.9793   33.0365    0.4524 N.pl3   1  UNL1       -0.1925
     25 C          22.7641   34.3137    0.5066 C.3     1  UNL1        0.1388
     26 S          20.5284   33.0311    0.8328 S.O2    1  UNL1        0.0588
     27 O          20.9062   33.1868    2.2761 O.2     1  UNL1       -0.1542
     28 O          20.1506   32.8754   -0.6104 O.2     1  UNL1       -0.1542
     29 C          19.0774   33.0257    1.2133 C.3     1  UNL1        0.1999
     30 C          22.8411   25.6003    1.8394 C.3     1  UNL1        0.1316
     31 C          23.9250   24.5710    1.7141 C.3     1  UNL1        0.0520
     32 C          25.2231   24.9257    1.0516 C.ar    1  UNL1       -0.0203
     33 C          26.2428   25.7424    1.7888 C.ar    1  UNL1       -0.0042
     34 C          27.5410   26.0971    1.1263 C.ar    1  UNL1       -0.0003
     35 C          27.8195   25.6352   -0.2734 C.ar    1  UNL1       -0.0000
     36 C          26.7999   24.8186   -1.0106 C.ar    1  UNL1       -0.0003
     37 C          25.5016   24.4639   -0.3481 C.ar    1  UNL1       -0.0042
     38 C          21.7710   25.4401    2.8782 C.3     1  UNL1        0.1226
     39 N          20.3804   25.9311    2.6045 N.4     1  UNL1        0.2580
     40 H          20.1865   26.9324    2.5912 H       1  UNL1        0.2039
     41 H          19.4348   26.2651    2.4183 H       1  UNL1        0.2039
     42 C          19.2749   24.9497    2.3502 C.3     1  UNL1        0.1297
     43 C          18.3136   24.6019    3.4478 C.3     1  UNL1        0.0710
     44 C          19.1308   24.3160    0.9984 C.2     1  UNL1        0.2719
     45 O          19.8754   24.8776   -0.1765 O.2     1  UNL1       -0.2690
     46 N          18.2421   23.1206    0.8213 N.am    1  UNL1       -0.2998
     47 H          17.7534   22.7520    1.5923 H       1  UNL1        0.1496
     48 C          18.0980   22.4869   -0.5307 C.3     1  UNL1        0.0895
     49 C          18.8751   21.2482   -0.8650 C.3     1  UNL1        0.0196
     50 C          20.1701   20.9631   -0.1639 C.3     1  UNL1        0.0017
     51 C          18.3570   20.2945   -1.9005 C.3     1  UNL1        0.0017
@<TRIPOS>UNITY_ATOM_ATTR
39 1
charge 1
@<TRIPOS>BOND
     1    26    27    2
     2    26    28    2
     3    26    24    1
     4    24    25    1
     5    24     5    1
     6     5     6   ar
     7     6     7   ar
     8     7     8   ar
     9     8     9   ar
    10     9    10   ar
    11     9     1    1
    12     1     2    2
    13     1     3   am
    14     3    30    1
    15    30    31    1
    16    31    32    1
    17    32    33   ar
    18    33    34   ar
    19    34    35   ar
    20    35    36   ar
    21    36    37   ar
    22    30    38    1
    23    38    39    1
    24    39    42    1
    25    42    44    1
    26    44    45    2
    27    44    46   am
    28    46    48    1
    29    48    49    1
    30    49    50    1
    31    49    51    1
    32    42    43    1
    33     7    11    1
    34    11    12    2
    35    11    13   am
    36    13    15    1
    37    15    16    1
    38    15    17    1
    39    17    18   ar
    40    18    19   ar
    41    19    20   ar
    42    20    21    1
    43    20    22   ar
    44    22    23   ar
    45    26    29    1
    46    10     5   ar
    47    37    32   ar
    48    23    17   ar
    49     3     4    1
    50    39    40    1
    51    39    41    1
    52    46    47    1
    53    13    14    1
@<TRIPOS>MOLECULE
*****
 35 38 0 0 0
SMALL
GASTEIGER

@<TRIPOS>ATOM
      1 CA         26.4289   28.3025   -1.7778 C.3     1  UNL1        0.1935
      2 C          26.9263   29.6274   -2.2747 C.2     1  UNL1        0.0925
      3 O          27.5335   29.7357   -3.6420 O.co2   1  UNL1       -0.5452
      4 OXT        26.8166   30.8441   -1.4043 O.co2   1  UNL1       -0.5452
      5 N          24.9580   28.0082   -1.7710 N.pl3   1  UNL1       -0.2209
      6 H          24.5880   27.3342   -2.3859 H       1  UNL1        0.2924
      7 CL         21.2690   25.7645    3.5775 Cl      1  UNL1       -0.0823
      8 C          21.9645   26.5086    2.4763 C.ar    1  UNL1        0.0574
      9 C          21.7529   27.9852    2.3187 C.ar    1  UNL1        0.0075
     10 C          22.4484   28.7292    1.2175 C.ar    1  UNL1       -0.0103
     11 C          22.2367   30.2059    1.0600 C.3     1  UNL1        0.0709
     12 C          22.9322   30.9499   -0.0412 C.3     1  UNL1        0.1325
     13 N          23.8394   30.2173   -0.9849 N.2     1  UNL1       -0.2677
     14 C          24.0510   28.7407   -0.8274 C.2     1  UNL1        0.2726
     15 C          23.3555   27.9967    0.2739 C.ar    1  UNL1        0.0740
     16 C          23.5670   26.5201    0.4314 C.ar    1  UNL1        0.0078
     17 C          22.8715   25.7760    1.5327 C.ar    1  UNL1        0.0116
     18 C          23.3649   32.0853   -0.9208 C.3     1  UNL1        0.0489
     19 C          22.1754   32.0768    0.5970 C.3     1  UNL1        0.0489
     20 H          24.2958   30.7056   -1.7077 H       1  UNL1        0.3045
     21 C          27.4023   27.2717   -1.2877 C.3     1  UNL1        0.0576
     22 C          27.1543   26.5638    0.0113 C.3     1  UNL1        0.0376
     23 C          27.0502   27.2092    1.3613 C.3     1  UNL1        0.0561
     24 S          26.7985   26.1305    2.3727 S.3     1  UNL1       -0.1140
     25 C          26.7471   24.8183    1.6477 C.2     1  UNL1        0.0267
     26 C          26.9670   25.0861    0.1883 C.2     1  UNL1       -0.0123
     27 C          26.9947   24.0569   -0.9026 C.ar    1  UNL1        0.0359
     28 C          26.0279   22.9222   -1.0689 C.ar    1  UNL1        0.1211
     29 N          26.4298   22.1457   -2.2878 N.ar    1  UNL1       -0.1710
     30 N          27.6450   22.8006   -2.8748 N.ar    1  UNL1       -0.2743
     31 C          27.9941   23.9818   -2.0186 C.ar    1  UNL1        0.0920
     32 H          28.1285   22.5067   -3.6804 H       1  UNL1        0.1890
     33 C          27.1757   28.6759    1.6494 C.3     1  UNL1        0.0115
     34 C          25.9704   29.4634    2.0702 C.3     1  UNL1        0.0009
     35 C          25.1911   29.0507    3.2837 C.3     1  UNL1        0.0000
@<TRIPOS>UNITY_ATOM_ATTR
4 1
charge -1
13 1
charge 1
@<TRIPOS>BOND
     1     7     8    1
     2     8     9   ar
     3     9    10   ar
     4    10    11    1
     5    11    12    1
     6    12    13    1
     7    13    14    2
     8    14     5    1
     9     5     1    1
    10     1    21    1
    11    22    21    1
    12    22    23    1
    13    23    24    1
    14    24    25    1
    15    25    26    2
    16    26    27    1
    17    27    28   ar
    18    28    29   ar
    19    29    30   ar
    20    30    31   ar
    21    23    33    1
    22    33    34    1
    23    34    35    1
    24     1     2    1
    25     2     3   ar
    26     2     4   ar
    27    14    15    1
    28    15    16   ar
    29    16    17   ar
    30    12    18    1
    31    12    19    1
    32    17     8   ar
    33    15    10   ar
    34    26    22    1
    35    31    27   ar
    36    13    20    1
    37     5     6    1
    38    30    32    1
@<TRIPOS>MOLECULE
*****
 35 38 0 0 0
SMALL
GASTEIGER

@<TRIPOS>ATOM
      1 CA         25.6702   25.9854    1.3363 C.3     1  UNL1        0.1935
      2 C          26.4258   27.0631    2.0557 C.2     1  UNL1        0.0925
      3 O          25.8355   27.7065    3.2753 O.co2   1  UNL1       -0.5452
      4 OXT        27.7716   27.4973    1.5555 O.co2   1  UNL1       -0.5452
      5 N          26.0977   24.5537    1.4683 N.pl3   1  UNL1       -0.2209
      6 H          26.3793   24.2028    2.3440 H       1  UNL1        0.2924
      7 CL         29.8813   24.7103   -4.2685 Cl      1  UNL1       -0.0823
      8 C          28.9350   24.4469   -3.1348 C.ar    1  UNL1        0.0574
      9 C          27.9871   23.2864   -3.2033 C.ar    1  UNL1        0.0075
     10 C          27.0409   23.0229   -2.0696 C.ar    1  UNL1       -0.0103
     11 C          26.0930   21.8623   -2.1382 C.3     1  UNL1        0.0709
     12 C          25.1467   21.5989   -1.0045 C.3     1  UNL1        0.1325
     13 N          25.1483   22.4961    0.1976 N.2     1  UNL1       -0.2677
     14 C          26.0961   23.6566    0.2661 C.2     1  UNL1        0.2726
     15 C          27.0424   23.9200   -0.8675 C.ar    1  UNL1        0.0740
     16 C          27.9903   25.0805   -0.7990 C.ar    1  UNL1        0.0078
     17 C          28.9366   25.3440   -1.9327 C.ar    1  UNL1        0.0116
     18 C          24.0700   20.9451   -0.1902 C.3     1  UNL1        0.0489
     19 C          24.7712   20.4747   -1.9239 C.3     1  UNL1        0.0489
     20 H          24.5272   22.3232    0.9417 H       1  UNL1        0.3045
     21 C          24.4871   26.3394    0.4848 C.3     1  UNL1        0.0576
     22 C          23.8437   27.6878    0.6181 C.3     1  UNL1        0.0376
     23 C          22.8355   28.0849    1.6553 C.3     1  UNL1        0.0561
     24 S          22.4642   29.5184    1.4159 S.3     1  UNL1       -0.1140
     25 C          23.2429   30.0071    0.2306 C.2     1  UNL1        0.0267
     26 C          24.0955   28.8757   -0.2624 C.2     1  UNL1       -0.0123
     27 C          25.0349   28.9239   -1.4308 C.ar    1  UNL1        0.0359
     28 C          26.4852   28.5417   -1.4124 C.ar    1  UNL1        0.1211
     29 N          27.0355   28.7443   -2.7931 N.ar    1  UNL1       -0.1710
     30 N          25.9253   29.2518   -3.6648 N.ar    1  UNL1       -0.2743
     31 C          24.6888   29.3627   -2.8228 C.ar    1  UNL1        0.0920
     32 H          25.9958   29.4731   -4.6215 H       1  UNL1        0.1890
     33 C          22.2937   27.2035    2.7413 C.3     1  UNL1        0.0115
     34 C          21.0338   26.4219    2.5143 C.3     1  UNL1        0.0009
     35 C          20.8116   25.7205    1.2070 C.3     1  UNL1        0.0000
@<TRIPOS>UNITY_ATOM_ATTR
4 1
charge -1
13 1
charge 1
@<TRIPOS>BOND
     1     7     8    1
     2     8     9   ar
     3     9    10   ar
     4    10    11    1
     5    11    12    1
     6    12    13    1
     7    13    14    2
     8    14     5    1
     9     5     1    1
    10     1    21    1
    11    22    21    1
    12    22    23    1
    13    23    24    1
    14    24    25    1
    15    25    26    2
    16    26    27    1
    17    27    28   ar
    18    28    29   ar
    19    29    30   ar
    20    30    31   ar
    21    23    33    1
    22    33    34    1
    23    34    35    1
    24     1     2    1
    25     2     3   ar
    26     2     4   ar
    27    14    15    1
    28    15    16   ar
    29    16    17   ar
    30    12    18    1
    31    12    19    1
    32    17     8   ar
    33    15    10   ar
    34    26    22    1
    35    31    27   ar
    36    13    20    1
    37     5     6    1
    38    30    32    1
@<TRIPOS>MOLECULE
*****
 35 38 0 0 0
SMALL
GASTEIGER

@<TRIPOS>ATOM
      1 CA         20.8928   24.3269    2.2975 C.3     1  UNL1        0.1935
      2 C          19.6921   25.1500    2.6590 C.2     1  UNL1        0.0925
      3 O          19.4789   26.4882    2.0160 O.co2   1  UNL1       -0.5452
      4 OXT        18.7045   24.6347    3.6636 O.co2   1  UNL1       -0.5452
      5 N          22.2545   24.7370    2.7746 N.pl3   1  UNL1       -0.2209
      6 H          22.4525   24.7583    3.7388 H       1  UNL1        0.2924
      7 CL         23.8653   30.8192    0.0065 Cl      1  UNL1       -0.0823
      8 C          23.7276   29.3930    0.4506 C.ar    1  UNL1        0.0574
      9 C          24.6499   28.3446   -0.0972 C.ar    1  UNL1        0.0075
     10 C          24.5122   26.9184    0.3469 C.ar    1  UNL1       -0.0103
     11 C          25.4345   25.8699   -0.2009 C.3     1  UNL1        0.0709
     12 C          25.2968   24.4438    0.2432 C.3     1  UNL1        0.1325
     13 N          24.2368   24.0662    1.2351 N.2     1  UNL1       -0.2677
     14 C          23.3145   25.1147    1.7828 C.2     1  UNL1        0.2726
     15 C          23.4522   26.5408    1.3387 C.ar    1  UNL1        0.0740
     16 C          22.5299   27.5892    1.8865 C.ar    1  UNL1        0.0078
     17 C          22.6676   29.0154    1.4424 C.ar    1  UNL1        0.0116
     18 C          25.5588   22.9713    0.3565 C.3     1  UNL1        0.0489
     19 C          26.4478   24.3101   -0.7093 C.3     1  UNL1        0.0489
     20 H          24.1464   23.1302    1.5265 H       1  UNL1        0.3045
     21 C          20.7319   23.0937    1.4587 C.3     1  UNL1        0.0576
     22 C          19.3652   22.5258    1.2146 C.3     1  UNL1        0.0376
     23 C          18.3059   23.1235    0.3367 C.3     1  UNL1        0.0561
     24 S          17.1039   22.2275    0.3850 S.3     1  UNL1       -0.1140
     25 C          17.4204   21.0760    1.2928 C.2     1  UNL1        0.0267
     26 C          18.8179   21.2604    1.8055 C.2     1  UNL1       -0.0123
     27 C          19.5411   20.3408    2.7442 C.ar    1  UNL1        0.0359
     28 C          20.9270   19.7992    2.5548 C.ar    1  UNL1        0.1211
     29 N          21.2478   18.9249    3.7307 N.ar    1  UNL1       -0.1710
     30 N          20.0602   18.9262    4.6469 N.ar    1  UNL1       -0.2743
     31 C          19.0054   19.8012    4.0372 C.ar    1  UNL1        0.0920
     32 H          19.9860   18.4384    5.4989 H       1  UNL1        0.1890
     33 C          18.4273   24.3941   -0.4511 C.3     1  UNL1        0.0115
     34 C          18.9391   24.3566   -1.8606 C.3     1  UNL1        0.0009
     35 C          18.2522   23.5031   -2.8854 C.3     1  UNL1        0.0000
@<TRIPOS>UNITY_ATOM_ATTR
4 1
charge -1
13 1
charge 1
@<TRIPOS>BOND
     1     7     8    1
     2     8     9   ar
     3     9    10   ar
     4    10    11    1
     5    11    12    1
     6    12    13    1
     7    13    14    2
     8    14     5    1
     9     5     1    1
    10     1    21    1
    11    22    21    1
    12    22    23    1
    13    23    24    1
    14    24    25    1
    15    25    26    2
    16    26    27    1
    17    27    28   ar
    18    28    29   ar
    19    29    30   ar
    20    30    31   ar
    21    23    33    1
    22    33    34    1
    23    34    35    1
    24     1     2    1
    25     2     3   ar
    26     2     4   ar
    27    14    15    1
    28    15    16   ar
    29    16    17   ar
    30    12    18    1
    31    12    19    1
    32    17     8   ar
    33    15    10   ar
    34    26    22    1
    35    31    27   ar
    36    13    20    1
    37     5     6    1
    38    30    32    1
@<TRIPOS>MOLECULE
*****
 35 38 0 0 0
SMALL
GASTEIGER

@<TRIPOS>ATOM
      1 CA         26.3435   27.7436   -1.5171 C.3     1  UNL1        0.1935
      2 C          26.9310   29.0567   -1.9419 C.2     1  UNL1        0.0925
      3 O          27.4131   30.0318   -0.9092 O.co2   1  UNL1       -0.5452
      4 OXT        27.0364   29.3946   -3.3996 O.co2   1  UNL1       -0.5452
      5 N          24.8669   27.5085   -1.6377 N.pl3   1  UNL1       -0.2209
      6 H          24.4919   27.1528   -2.4756 H       1  UNL1        0.2924
      7 CL         22.1064   33.4421    0.4651 Cl      1  UNL1       -0.0823
      8 C          22.5703   32.0354    0.2284 C.ar    1  UNL1        0.0574
      9 C          22.1289   30.9354    1.1478 C.ar    1  UNL1        0.0075
     10 C          22.5927   29.5287    0.9111 C.ar    1  UNL1       -0.0103
     11 C          22.1514   28.4287    1.8306 C.3     1  UNL1        0.0709
     12 C          22.6152   27.0220    1.5939 C.3     1  UNL1        0.1325
     13 N          23.5204   26.7153    0.4378 N.2     1  UNL1       -0.2677
     14 C          23.9618   27.8152   -0.4816 C.2     1  UNL1        0.2726
     15 C          23.4979   29.2220   -0.2449 C.ar    1  UNL1        0.0740
     16 C          23.9393   30.3219   -1.1643 C.ar    1  UNL1        0.0078
     17 C          23.4754   31.7286   -0.9276 C.ar    1  UNL1        0.0116
     18 C          22.7852   25.5436    1.7813 C.3     1  UNL1        0.0489
     19 C          21.7690   26.8153    2.8151 C.3     1  UNL1        0.0489
     20 H          23.8249   25.7920    0.2824 H       1  UNL1        0.3045
     21 C          27.2325   26.6655   -0.9716 C.3     1  UNL1        0.0576
     22 C          26.8779   25.9804    0.3148 C.3     1  UNL1        0.0376
     23 C          26.8410   26.6178    1.6722 C.3     1  UNL1        0.0561
     24 S          26.4382   25.5690    2.6660 S.3     1  UNL1       -0.1140
     25 C          26.2262   24.2833    1.9228 C.2     1  UNL1        0.0267
     26 C          26.4979   24.5377    0.4697 C.2     1  UNL1       -0.0123
     27 C          26.4058   23.5267   -0.6346 C.ar    1  UNL1        0.0359
     28 C          27.2068   23.5308   -1.9027 C.ar    1  UNL1        0.1211
     29 N          26.7926   22.3407   -2.7165 N.ar    1  UNL1       -0.1710
     30 N          25.7355   21.6011   -1.9512 N.ar    1  UNL1       -0.2743
     31 C          25.4965   22.3341   -0.6645 C.ar    1  UNL1        0.0920
     32 H          25.2788   20.7790   -2.2423 H       1  UNL1        0.1890
     33 C          27.1522   28.0522    1.9815 C.3     1  UNL1        0.0115
     34 C          26.0371   29.0309    2.2019 C.3     1  UNL1        0.0009
     35 C          25.1851   28.9322    3.4326 C.3     1  UNL1        0.0000
@<TRIPOS>UNITY_ATOM_ATTR
4 1
charge -1
13 1
charge 1
@<TRIPOS>BOND
     1     7     8    1
     2     8     9   ar
     3     9    10   ar
     4    10    11    1
     5    11    12    1
     6    12    13    1
     7    13    14    2
     8    14     5    1
     9     5     1    1
    10     1    21    1
    11    22    21    1
    12    22    23    1
    13    23    24    1
    14    24    25    1
    15    25    26    2
    16    26    27    1
    17    27    28   ar
    18    28    29   ar
    19    29    30   ar
    20    30    31   ar
    21    23    33    1
    22    33    34    1
    23    34    35    1
    24     1     2    1
    25     2     3   ar
    26     2     4   ar
    27    14    15    1
    28    15    16   ar
    29    16    17   ar
    30    12    18    1
    31    12    19    1
    32    17     8   ar
    33    15    10   ar
    34    26    22    1
    35    31    27   ar
    36    13    20    1
    37     5     6    1
    38    30    32    1
@<TRIPOS>MOLECULE
*****
 35 38 0 0 0
SMALL
GASTEIGER

@<TRIPOS>ATOM
      1 CA         25.9418   29.3016    0.3929 C.3     1  UNL1        0.1935
      2 C          27.3349   29.6439    0.8310 C.2     1  UNL1        0.0925
      3 O          27.8796   31.0206    0.5909 O.co2   1  UNL1       -0.5452
      4 OXT        28.1833   28.6094    1.5093 O.co2   1  UNL1       -0.5452
      5 N          24.7995   30.2053    0.7513 N.pl3   1  UNL1       -0.2209
      6 H          24.4616   30.2286    1.6757 H       1  UNL1        0.2924
      7 CL         18.7665   33.4981    0.6507 Cl      1  UNL1       -0.0823
      8 C          20.1179   32.8920    0.4133 C.ar    1  UNL1        0.0574
      9 C          20.8418   33.1539   -0.8740 C.ar    1  UNL1        0.0075
     10 C          22.1932   32.5478   -1.1113 C.ar    1  UNL1       -0.0103
     11 C          22.9171   32.8098   -2.3988 C.3     1  UNL1        0.0709
     12 C          24.2684   32.2036   -2.6361 C.3     1  UNL1        0.1325
     13 N          24.8959   31.3354   -1.5860 N.2     1  UNL1       -0.2677
     14 C          24.1720   31.0734   -0.2987 C.2     1  UNL1        0.2726
     15 C          22.8206   31.6796   -0.0613 C.ar    1  UNL1        0.0740
     16 C          22.0967   31.4176    1.2260 C.ar    1  UNL1        0.0078
     17 C          20.7454   32.0238    1.4633 C.ar    1  UNL1        0.0116
     18 C          25.5573   31.8571   -3.3207 C.3     1  UNL1        0.0489
     19 C          24.0886   32.9514   -3.9239 C.3     1  UNL1        0.0489
     20 H          25.7829   30.9376   -1.7418 H       1  UNL1        0.3045
     21 C          25.6909   28.0555   -0.4036 C.3     1  UNL1        0.0576
     22 C          25.3168   26.7817    0.2945 C.3     1  UNL1        0.0376
     23 C          24.0149   26.5049    0.9862 C.3     1  UNL1        0.0561
     24 S          24.0723   25.1131    1.5427 S.3     1  UNL1       -0.1140
     25 C          25.4098   24.5298    1.1949 C.2     1  UNL1        0.0267
     26 C          26.1789   25.5610    0.4234 C.2     1  UNL1       -0.0123
     27 C          27.5665   25.3998   -0.1230 C.ar    1  UNL1        0.0359
     28 C          27.9534   25.4371   -1.5718 C.ar    1  UNL1        0.1211
     29 N          29.4368   25.2333   -1.6608 N.ar    1  UNL1       -0.1710
     30 N          29.9667   25.0701   -0.2670 N.ar    1  UNL1       -0.2743
     31 C          28.8108   25.1731    0.6834 C.ar    1  UNL1        0.0920
     32 H          30.9080   24.9216   -0.0195 H       1  UNL1        0.1890
     33 C          22.8585   27.4533    1.1012 C.3     1  UNL1        0.0115
     34 C          21.6800   27.0985    1.9586 C.3     1  UNL1        0.0009
     35 C          21.7140   27.3764    3.4323 C.3     1  UNL1        0.0000
@<TRIPOS>UNITY_ATOM_ATTR
4 1
charge -1
13 1
charge 1
@<TRIPOS>BOND
     1     7     8    1
     2     8     9   ar
     3     9    10   ar
     4    10    11    1
     5    11    12    1
     6    12    13    1
     7    13    14    2
     8    14     5    1
     9     5     1    1
    10     1    21    1
    11    22    21    1
    12    22    23    1
    13    23    24    1
    14    24    25    1
    15    25    26    2
    16    26    27    1
    17    27    28   ar
    18    28    29   ar
    19    29    30   ar
    20    30    31   ar
    21    23    33    1
    22    33    34    1
    23    34    35    1
    24     1     2    1
    25     2     3   ar
    26     2     4   ar
    27    14    15    1
    28    15    16   ar
    29    16    17   ar
    30    12    18    1
    31    12    19    1
    32    17     8   ar
    33    15    10   ar
    34    26    22    1
    35    31    27   ar
    36    13    20    1
    37     5     6    1
    38    30    32    1
@<TRIPOS>MOLECULE
*****
 35 38 0 0 0
SMALL
GASTEIGER

@<TRIPOS>ATOM
      1 CA         24.3087   28.9912   -0.2350 C.3     1  UNL1        0.1935
      2 C          24.2735   28.1789   -1.4955 C.2     1  UNL1        0.0925
      3 O          24.8885   28.7182   -2.7528 O.co2   1  UNL1       -0.5452
      4 OXT        23.6231   26.8272   -1.4987 O.co2   1  UNL1       -0.5452
      5 N          24.7008   30.4382   -0.2860 N.pl3   1  UNL1       -0.2209
      6 H          25.4860   30.7534    0.2174 H       1  UNL1        0.2924
      7 CL         18.6525   33.4527    0.9709 Cl      1  UNL1       -0.0823
      8 C          19.9635   32.9407    0.4522 C.ar    1  UNL1        0.0574
      9 C          20.4704   33.3954   -0.8843 C.ar    1  UNL1        0.0075
     10 C          21.7815   32.8834   -1.4030 C.ar    1  UNL1       -0.0103
     11 C          22.2883   33.3381   -2.7396 C.3     1  UNL1        0.0709
     12 C          23.5994   32.8261   -3.2583 C.3     1  UNL1        0.1325
     13 N          24.4035   31.8594   -2.4404 N.2     1  UNL1       -0.2677
     14 C          23.8967   31.4048   -1.1038 C.2     1  UNL1        0.2726
     15 C          22.5856   31.9168   -0.5852 C.ar    1  UNL1        0.0740
     16 C          22.0787   31.4621    0.7514 C.ar    1  UNL1        0.0078
     17 C          20.7677   31.9741    1.2701 C.ar    1  UNL1        0.0116
     18 C          24.7726   32.6256   -4.1711 C.3     1  UNL1        0.0489
     19 C          23.2026   33.7231   -4.3932 C.3     1  UNL1        0.0489
     20 H          25.2640   31.5234   -2.7808 H       1  UNL1        0.3045
     21 C          23.9519   28.3566    1.0765 C.3     1  UNL1        0.0576
     22 C          24.5044   27.0082    1.4322 C.3     1  UNL1        0.0376
     23 C          25.9510   26.6127    1.4036 C.3     1  UNL1        0.0561
     24 S          26.0481   25.1786    1.8327 S.3     1  UNL1       -0.1140
     25 C          24.6613   24.6879    2.1265 C.2     1  UNL1        0.0267
     26 C          23.7073   25.8187    1.8789 C.2     1  UNL1       -0.0123
     27 C          22.2178   25.7686    2.0484 C.ar    1  UNL1        0.0359
     28 C          21.4796   25.7320    3.3537 C.ar    1  UNL1        0.1211
     29 N          20.0105   25.6871    3.0542 N.ar    1  UNL1       -0.1710
     30 N          19.8406   25.6961    1.5639 N.ar    1  UNL1       -0.2743
     31 C          21.2049   25.7464    0.9423 C.ar    1  UNL1        0.0920
     32 H          18.9842   25.6729    1.0789 H       1  UNL1        0.1890
     33 C          27.0991   27.4960    1.0143 C.3     1  UNL1        0.0115
     34 C          27.7446   28.3819    2.0383 C.3     1  UNL1        0.0009
     35 C          27.3236   29.8164    2.1613 C.3     1  UNL1        0.0000
@<TRIPOS>UNITY_ATOM_ATTR
4 1
charge -1
13 1
charge 1
@<TRIPOS>BOND
     1     7     8    1
     2     8     9   ar
     3     9    10   ar
     4    10    11    1
     5    11    12    1
     6    12    13    1
     7    13    14    2
     8    14     5    1
     9     5     1    1
    10     1    21    1
    11    22    21    1
    12    22    23    1
    13    23    24    1
    14    24    25    1
    15    25    26    2
    16    26    27    1
    17    27    28   ar
    18    28    29   ar
    19    29    30   ar
    20    30    31   ar
    21    23    33    1
    22    33    34    1
    23    34    35    1
    24     1     2    1
    25     2     3   ar
    26     2     4   ar
    27    14    15    1
    28    15    16   ar
    29    16    17   ar
    30    12    18    1
    31    12    19    1
    32    17     8   ar
    33    15    10   ar
    34    26    22    1
    35    31    27   ar
    36    13    20    1
    37     5     6    1
    38    30    32    1
@<TRIPOS>MOLECULE
*****
 35 38 0 0 0
SMALL
GASTEIGER

@<TRIPOS>ATOM
      1 CA         24.5101   28.6096   -1.1494 C.3     1  UNL1        0.1935
      2 C          25.7152   28.7638   -2.0290 C.2     1  UNL1        0.0925
      3 O          27.0879   28.7801   -1.4244 O.co2   1  UNL1       -0.5452
      4 OXT        25.5477   28.9016   -3.5133 O.co2   1  UNL1       -0.5452
      5 N          23.9935   29.7841   -0.3724 N.pl3   1  UNL1       -0.2209
      6 H          24.0354   29.7805    0.6112 H       1  UNL1        0.2924
      7 CL         18.4705   33.6348    1.0128 Cl      1  UNL1       -0.0823
      8 C          19.7062   32.9672    0.4861 C.ar    1  UNL1        0.0574
      9 C          20.3613   33.4794   -0.7622 C.ar    1  UNL1        0.0075
     10 C          21.5969   32.8117   -1.2889 C.ar    1  UNL1       -0.0103
     11 C          22.2521   33.3240   -2.5373 C.3     1  UNL1        0.0709
     12 C          23.4877   32.6563   -3.0640 C.3     1  UNL1        0.1325
     13 N          24.0682   31.4763   -2.3423 N.2     1  UNL1       -0.2677
     14 C          23.4130   30.9641   -1.0940 C.2     1  UNL1        0.2726
     15 C          22.1774   31.6318   -0.5673 C.ar    1  UNL1        0.0740
     16 C          21.5222   31.1195    0.6810 C.ar    1  UNL1        0.0078
     17 C          20.2866   31.7872    1.2077 C.ar    1  UNL1        0.0116
     18 C          24.6635   32.3630   -3.9479 C.3     1  UNL1        0.0489
     19 C          23.3156   33.7344   -4.0926 C.3     1  UNL1        0.0489
     20 H          24.8792   31.0381   -2.6880 H       1  UNL1        0.3045
     21 C          23.8215   27.2810   -1.0467 C.3     1  UNL1        0.0576
     22 C          24.2901   26.2689   -0.0437 C.3     1  UNL1        0.0376
     23 C          25.4908   25.3805   -0.1825 C.3     1  UNL1        0.0561
     24 S          25.5831   24.5300    1.0496 S.3     1  UNL1       -0.1140
     25 C          24.4395   24.8928    1.9500 C.2     1  UNL1        0.0267
     26 C          23.6404   25.9675    1.2743 C.2     1  UNL1       -0.0123
     27 C          22.4080   26.6252    1.8206 C.ar    1  UNL1        0.0359
     28 C          21.0216   26.0529    1.8031 C.ar    1  UNL1        0.1211
     29 N          20.1024   27.0448    2.4521 N.ar    1  UNL1       -0.1710
     30 N          20.9207   28.2301    2.8708 N.ar    1  UNL1       -0.2743
     31 C          22.3457   27.9708    2.4805 C.ar    1  UNL1        0.0920
     32 H          20.5820   29.0367    3.3224 H       1  UNL1        0.1890
     33 C          26.4335   25.3482   -1.3488 C.3     1  UNL1        0.0115
     34 C          27.8626   24.9396   -1.1468 C.3     1  UNL1        0.0009
     35 C          28.6749   24.4525   -2.3101 C.3     1  UNL1        0.0000
@<TRIPOS>UNITY_ATOM_ATTR
4 1
charge -1
13 1
charge 1
@<TRIPOS>BOND
     1     7     8    1
     2     8     9   ar
     3     9    10   ar
     4    10    11    1
     5    11    12    1
     6    12    13    1
     7    13    14    2
     8    14     5    1
     9     5     1    1
    10     1    21    1
    11    22    21    1
    12    22    23    1
    13    23    24    1
    14    24    25    1
    15    25    26    2
    16    26    27    1
    17    27    28   ar
    18    28    29   ar
    19    29    30   ar
    20    30    31   ar
    21    23    33    1
    22    33    34    1
    23    34    35    1
    24     1     2    1
    25     2     3   ar
    26     2     4   ar
    27    14    15    1
    28    15    16   ar
    29    16    17   ar
    30    12    18    1
    31    12    19    1
    32    17     8   ar
    33    15    10   ar
    34    26    22    1
    35    31    27   ar
    36    13    20    1
    37     5     6    1
    38    30    32    1
@<TRIPOS>MOLECULE
*****
 35 38 0 0 0
SMALL
GASTEIGER

@<TRIPOS>ATOM
      1 CA         25.8026   26.0247    0.8617 C.3     1  UNL1        0.1935
      2 C          26.5205   27.0781    1.6522 C.2     1  UNL1        0.0925
      3 O          27.5906   27.9043    1.0025 O.co2   1  UNL1       -0.5452
      4 OXT        26.1682   27.3053    3.0925 O.co2   1  UNL1       -0.5452
      5 N          26.1479   24.5776    1.0533 N.pl3   1  UNL1       -0.2209
      6 H          26.3243   24.2292    1.9570 H       1  UNL1        0.2924
      7 CL         30.1865   24.7395   -4.5066 Cl      1  UNL1       -0.0823
      8 C          29.1959   24.4700   -3.4129 C.ar    1  UNL1        0.0574
      9 C          28.2817   23.2843   -3.5045 C.ar    1  UNL1        0.0075
     10 C          27.2912   23.0148   -2.4108 C.ar    1  UNL1       -0.0103
     11 C          26.3770   21.8291   -2.5023 C.3     1  UNL1        0.0709
     12 C          25.3864   21.5595   -1.4086 C.3     1  UNL1        0.1325
     13 N          25.3101   22.4758   -0.2234 N.2     1  UNL1       -0.2677
     14 C          26.2242   23.6615   -0.1319 C.2     1  UNL1        0.2726
     15 C          27.2148   23.9310   -1.2256 C.ar    1  UNL1        0.0740
     16 C          28.1290   25.1166   -1.1340 C.ar    1  UNL1        0.0078
     17 C          29.1195   25.3862   -2.2277 C.ar    1  UNL1        0.0116
     18 C          24.2902   20.8913   -0.6330 C.3     1  UNL1        0.0489
     19 C          25.0821   20.4113   -2.3245 C.3     1  UNL1        0.0489
     20 H          24.6599   22.2989    0.4945 H       1  UNL1        0.3045
     21 C          24.7393   26.4184   -0.1205 C.3     1  UNL1        0.0576
     22 C          24.1106   27.7779   -0.0405 C.3     1  UNL1        0.0376
     23 C          24.4880   28.9736   -0.8638 C.3     1  UNL1        0.0561
     24 S          23.6047   30.1151   -0.4552 S.3     1  UNL1       -0.1140
     25 C          22.6815   29.6248    0.6206 C.2     1  UNL1        0.0267
     26 C          22.9942   28.1803    0.8769 C.2     1  UNL1       -0.0123
     27 C          22.3105   27.2939    1.8753 C.ar    1  UNL1        0.0359
     28 C          21.4693   26.0932    1.5580 C.ar    1  UNL1        0.1211
     29 N          20.9868   25.5099    2.8529 N.ar    1  UNL1       -0.1710
     30 N          21.5298   26.3500    3.9707 N.ar    1  UNL1       -0.2743
     31 C          22.3479   27.4527    3.3664 C.ar    1  UNL1        0.0920
     32 H          21.3763   26.2035    4.9320 H       1  UNL1        0.1890
     33 C          25.5602   29.0198   -1.9116 C.3     1  UNL1        0.0115
     34 C          26.0191   30.3395   -2.4575 C.3     1  UNL1        0.0009
     35 C          27.3948   30.4724   -3.0405 C.3     1  UNL1        0.0000
@<TRIPOS>UNITY_ATOM_ATTR
4 1
charge -1
13 1
charge 1
@<TRIPOS>BOND
     1     7     8    1
     2     8     9   ar
     3     9    10   ar
     4    10    11    1
     5    11    12    1
     6    12    13    1
     7    13    14    2
     8    14     5    1
     9     5     1    1
    10     1    21    1
    11    22    21    1
    12    22    23    1
    13    23    24    1
    14    24    25    1
    15    25    26    2
    16    26    27    1
    17    27    28   ar
    18    28    29   ar
    19    29    30   ar
    20    30    31   ar
    21    23    33    1
    22    33    34    1
    23    34    35    1
    24     1     2    1
    25     2     3   ar
    26     2     4   ar
    27    14    15    1
    28    15    16   ar
    29    16    17   ar
    30    12    18    1
    31    12    19    1
    32    17     8   ar
    33    15    10   ar
    34    26    22    1
    35    31    27   ar
    36    13    20    1
    37     5     6    1
    38    30    32    1
@<TRIPOS>MOLECULE
*****
 35 38 0 0 0
SMALL
GASTEIGER

@<TRIPOS>ATOM
      1 CA         25.1633   17.1523    1.2046 C.3     1  UNL1        0.1935
      2 C          24.7739   18.2966    2.0927 C.2     1  UNL1        0.0925
      3 O          25.8305   19.1918    2.6693 O.co2   1  UNL1       -0.5452
      4 OXT        23.3280   18.5458    2.4044 O.co2   1  UNL1       -0.5452
      5 N          25.0232   15.7415    1.6943 N.pl3   1  UNL1       -0.2209
      6 H          25.8029   15.2702    2.0675 H       1  UNL1        0.2924
      7 CL         22.9456    9.6944    4.2175 Cl      1  UNL1       -0.0823
      8 C          23.1330   11.0330    3.5669 C.ar    1  UNL1        0.0574
      9 C          21.9924   11.6786    2.8374 C.ar    1  UNL1        0.0075
     10 C          22.1798   13.0171    2.1869 C.ar    1  UNL1       -0.0103
     11 C          21.0392   13.6627    1.4574 C.3     1  UNL1        0.0709
     12 C          21.2266   15.0013    0.8068 C.3     1  UNL1        0.1325
     13 N          22.5547   15.6942    0.8858 N.2     1  UNL1       -0.2677
     14 C          23.6952   15.0486    1.6153 C.2     1  UNL1        0.2726
     15 C          23.5078   13.7100    2.2659 C.ar    1  UNL1        0.0740
     16 C          24.6484   13.0644    2.9954 C.ar    1  UNL1        0.0078
     17 C          24.4610   11.7259    3.6459 C.ar    1  UNL1        0.0116
     18 C          20.9152   16.2497    0.0359 C.3     1  UNL1        0.0489
     19 C          19.7904   14.7419    0.4601 C.3     1  UNL1        0.0489
     20 H          22.6777   16.5727    0.4588 H       1  UNL1        0.3045
     21 C          25.6928   17.4189   -0.1734 C.3     1  UNL1        0.0576
     22 C          24.7422   17.6325   -1.3138 C.3     1  UNL1        0.0376
     23 C          24.1458   16.5605   -2.1771 C.3     1  UNL1        0.0561
     24 S          23.2561   17.2211   -3.1880 S.3     1  UNL1       -0.1140
     25 C          23.3027   18.7013   -2.9496 C.2     1  UNL1        0.0267
     26 C          24.2212   18.9555   -1.7913 C.2     1  UNL1       -0.0123
     27 C          24.5592   20.2973   -1.2121 C.ar    1  UNL1        0.0359
     28 C          23.8692   20.9576   -0.0555 C.ar    1  UNL1        0.1211
     29 N          24.5302   22.2827    0.1835 N.ar    1  UNL1       -0.1710
     30 N          25.6288   22.4414   -0.8254 N.ar    1  UNL1       -0.2743
     31 C          25.6467   21.2143   -1.6880 C.ar    1  UNL1        0.0920
     32 H          26.2322   23.2150   -0.9071 H       1  UNL1        0.1890
     33 C          24.3952   15.0868   -2.0514 C.3     1  UNL1        0.0115
     34 C          25.2985   14.3931   -3.0275 C.3     1  UNL1        0.0009
     35 C          26.5232   15.0900   -3.5419 C.3     1  UNL1        0.0000
@<TRIPOS>UNITY_ATOM_ATTR
4 1
charge -1
13 1
charge 1
@<TRIPOS>BOND
     1     7     8    1
     2     8     9   ar
     3     9    10   ar
     4    10    11    1
     5    11    12    1
     6    12    13    1
     7    13    14    2
     8    14     5    1
     9     5     1    1
    10     1    21    1
    11    22    21    1
    12    22    23    1
    13    23    24    1
    14    24    25    1
    15    25    26    2
    16    26    27    1
    17    27    28   ar
    18    28    29   ar
    19    29    30   ar
    20    30    31   ar
    21    23    33    1
    22    33    34    1
    23    34    35    1
    24     1     2    1
    25     2     3   ar
    26     2     4   ar
    27    14    15    1
    28    15    16   ar
    29    16    17   ar
    30    12    18    1
    31    12    19    1
    32    17     8   ar
    33    15    10   ar
    34    26    22    1
    35    31    27   ar
    36    13    20    1
    37     5     6    1
    38    30    32    1
@<TRIPOS>MOLECULE
*****
 32 36 0 0 0
SMALL
GASTEIGER

@<TRIPOS>ATOM
      1 O          21.6823   20.3212    2.0675 O.2     1  UNL1       -0.4474
      2 C          20.7705   21.1501    1.2122 C.3     1  UNL1        0.2391
      3 C          20.0471   20.2277    0.2763 C.3     1  UNL1        0.1721
      4 N          20.5119   18.8286    0.5532 N.2     1  UNL1       -0.2161
      5 C          21.5224   18.8864    1.6602 C.2     1  UNL1        0.2773
      6 N          22.2461   17.7151    2.2553 N.pl3   1  UNL1       -0.3133
      7 C          19.6802   21.6729    0.1132 C.ar    1  UNL1        0.0399
      8 C          20.3239   22.7128    0.9818 C.ar    1  UNL1        0.0011
      9 C          19.9570   24.1580    0.8187 C.ar    1  UNL1        0.0030
     10 C          18.9464   24.5634   -0.2129 C.ar    1  UNL1        0.0032
     11 C          18.3027   23.5236   -1.0814 C.ar    1  UNL1        0.0372
     12 C          18.6696   22.0784   -0.9183 C.ar    1  UNL1        0.1434
     13 O          18.0258   21.0386   -1.7869 O.3     1  UNL1       -0.4540
     14 C          18.3927   19.5933   -1.6238 C.ar    1  UNL1        0.1436
     15 C          19.4034   19.1878   -0.5922 C.ar    1  UNL1        0.0429
     16 C          19.7703   17.7426   -0.4291 C.ar    1  UNL1        0.0379
     17 C          19.1266   16.7027   -1.2976 C.ar    1  UNL1        0.1385
     18 C          18.1159   17.1082   -2.3292 C.ar    1  UNL1        0.0400
     19 C          17.7490   18.5535   -2.4923 C.ar    1  UNL1        0.0403
     20 H          22.0725   16.8063    1.9187 H       1  UNL1        0.1466
     21 H          22.8948   17.8550    2.9826 H       1  UNL1        0.1466
     22 C          20.6007   25.1979    1.6872 C.ar    1  UNL1        0.0384
     23 C          21.9468   24.9379    2.2962 C.ar    1  UNL1        0.1022
     24 N          22.5905   25.9777    3.1647 N.ar    1  UNL1       -0.2224
     25 C          21.8883   27.2775    3.4243 C.ar    1  UNL1        0.1989
     26 N          20.5423   27.5375    2.8153 N.ar    1  UNL1       -0.2224
     27 C          19.8985   26.4977    1.9468 C.ar    1  UNL1        0.1022
     28 O          19.4935   15.2575   -1.1346 O.3     1  UNL1       -0.4755
     29 C          19.1807   14.5443    0.1474 C.3     1  UNL1        0.2053
     30 C          18.4662   13.2257    0.1171 C.3     1  UNL1        0.0438
     31 C          18.8181   12.1590    1.1112 C.3     1  UNL1        0.0038
     32 C          17.4000   12.9738   -0.9074 C.3     1  UNL1        0.0038
@<TRIPOS>BOND
     1     1     2    1
     2     3     2    1
     3     3     4    1
     4     4     5    2
     5     5     6    1
     6     3     7    1
     7     7     8   ar
     8     8     9   ar
     9     9    10   ar
    10    10    11   ar
    11    11    12   ar
    12    12    13    1
    13    13    14    1
    14    14    15   ar
    15    15    16   ar
    16    16    17   ar
    17    17    28    1
    18    28    29    1
    19    29    30    1
    20    30    31    1
    21    30    32    1
    22    17    18   ar
    23    18    19   ar
    24     9    22    1
    25    22    23   ar
    26    23    24   ar
    27    24    25   ar
    28    25    26   ar
    29    26    27   ar
    30     5     1    1
    31    12     7   ar
    32    19    14   ar
    33    27    22   ar
    34    15     3    1
    35     6    20    1
    36     6    21    1
@<TRIPOS>MOLECULE
*****
 32 36 0 0 0
SMALL
GASTEIGER

@<TRIPOS>ATOM
      1 O          20.1666   18.3288    3.6697 O.2     1  UNL1       -0.4474
      2 C          20.5825   17.8853    2.2985 C.3     1  UNL1        0.2391
      3 C          19.9564   18.8142    1.3010 C.3     1  UNL1        0.1721
      4 N          19.1534   19.8318    2.0557 N.2     1  UNL1       -0.2161
      5 C          19.2833   19.5318    3.5197 C.2     1  UNL1        0.2773
      6 N          18.6424   20.2999    4.6373 N.pl3   1  UNL1       -0.3133
      7 C          20.7965   17.7347    0.6856 C.ar    1  UNL1        0.0399
      8 C          21.4863   16.7305    1.5608 C.ar    1  UNL1        0.0011
      9 C          22.3265   15.6509    0.9454 C.ar    1  UNL1        0.0030
     10 C          22.4768   15.5756   -0.5451 C.ar    1  UNL1        0.0032
     11 C          21.7871   16.5797   -1.4202 C.ar    1  UNL1        0.0372
     12 C          20.9470   17.6592   -0.8049 C.ar    1  UNL1        0.1434
     13 O          20.2572   18.6633   -1.6801 O.3     1  UNL1       -0.4540
     14 C          19.4171   19.7429   -1.0647 C.ar    1  UNL1        0.1436
     15 C          19.2666   19.8184    0.4258 C.ar    1  UNL1        0.0429
     16 C          18.4265   20.8980    1.0412 C.ar    1  UNL1        0.0379
     17 C          17.7367   21.9021    0.1660 C.ar    1  UNL1        0.1385
     18 C          17.8872   21.8266   -1.3245 C.ar    1  UNL1        0.0400
     19 C          18.7273   20.7471   -1.9399 C.ar    1  UNL1        0.0403
     20 H          18.0761   21.0800    4.4371 H       1  UNL1        0.1466
     21 H          18.7880   20.0240    5.5711 H       1  UNL1        0.1466
     22 C          23.0162   14.6468    1.8206 C.ar    1  UNL1        0.0384
     23 C          24.5000   14.7250    2.0264 C.ar    1  UNL1        0.1022
     24 N          25.1898   13.7209    2.9016 N.ar    1  UNL1       -0.2224
     25 C          24.3958   12.6385    3.5709 C.ar    1  UNL1        0.1989
     26 N          22.9119   12.5603    3.3651 N.ar    1  UNL1       -0.2224
     27 C          22.2222   13.5644    2.4899 C.ar    1  UNL1        0.1022
     28 O          16.8965   22.9817    0.7814 O.3     1  UNL1       -0.4755
     29 C          17.4833   23.8858    1.8245 C.3     1  UNL1        0.2053
     30 C          18.7043   24.6989    1.5114 C.3     1  UNL1        0.0438
     31 C          19.0619   24.9964    0.0854 C.3     1  UNL1        0.0038
     32 C          19.5677   25.2145    2.6244 C.3     1  UNL1        0.0038
@<TRIPOS>BOND
     1     1     2    1
     2     3     2    1
     3     3     4    1
     4     4     5    2
     5     5     6    1
     6     3     7    1
     7     7     8   ar
     8     8     9   ar
     9     9    10   ar
    10    10    11   ar
    11    11    12   ar
    12    12    13    1
    13    13    14    1
    14    14    15   ar
    15    15    16   ar
    16    16    17   ar
    17    17    28    1
    18    28    29    1
    19    29    30    1
    20    30    31    1
    21    30    32    1
    22    17    18   ar
    23    18    19   ar
    24     9    22    1
    25    22    23   ar
    26    23    24   ar
    27    24    25   ar
    28    25    26   ar
    29    26    27   ar
    30     5     1    1
    31    12     7   ar
    32    19    14   ar
    33    27    22   ar
    34    15     3    1
    35     6    20    1
    36     6    21    1
@<TRIPOS>MOLECULE
*****
 32 36 0 0 0
SMALL
GASTEIGER

@<TRIPOS>ATOM
      1 O          21.6514   20.2767    2.0419 O.2     1  UNL1       -0.4474
      2 C          20.7492   21.1125    1.1832 C.3     1  UNL1        0.2391
      3 C          20.0318   20.1969    0.2361 C.3     1  UNL1        0.1721
      4 N          20.4907   18.7953    0.5094 N.2     1  UNL1       -0.2161
      5 C          21.4917   18.8446    1.6255 C.2     1  UNL1        0.2773
      6 N          22.2073   17.6683    2.2206 N.pl3   1  UNL1       -0.3133
      7 C          19.6698   21.6440    0.0776 C.ar    1  UNL1        0.0399
      8 C          20.3085   22.6775    0.9573 C.ar    1  UNL1        0.0011
      9 C          19.9465   24.1246    0.7988 C.ar    1  UNL1        0.0030
     10 C          18.9459   24.5380   -0.2393 C.ar    1  UNL1        0.0032
     11 C          18.3073   23.5044   -1.1190 C.ar    1  UNL1        0.0372
     12 C          18.6692   22.0575   -0.9606 C.ar    1  UNL1        0.1434
     13 O          18.0305   21.0239   -1.8402 O.3     1  UNL1       -0.4540
     14 C          18.3925   19.5769   -1.6818 C.ar    1  UNL1        0.1436
     15 C          19.3931   19.1634   -0.6436 C.ar    1  UNL1        0.0429
     16 C          19.7551   17.7163   -0.4852 C.ar    1  UNL1        0.0379
     17 C          19.1164   16.6828   -1.3649 C.ar    1  UNL1        0.1385
     18 C          18.1158   17.0963   -2.4030 C.ar    1  UNL1        0.0400
     19 C          17.7539   18.5434   -2.5615 C.ar    1  UNL1        0.0403
     20 H          22.0343   16.7618    1.8776 H       1  UNL1        0.1466
     21 H          22.8499   17.8027    2.9542 H       1  UNL1        0.1466
     22 C          20.5852   25.1581    1.6785 C.ar    1  UNL1        0.0384
     23 C          19.8887   26.4626    1.9304 C.ar    1  UNL1        0.1022
     24 N          20.5274   27.4962    2.8101 N.ar    1  UNL1       -0.2224
     25 C          21.8625   27.2253    3.4380 C.ar    1  UNL1        0.1989
     26 N          22.5589   25.9207    3.1861 N.ar    1  UNL1       -0.2224
     27 C          21.9202   24.8872    2.3065 C.ar    1  UNL1        0.1022
     28 O          19.4784   15.2358   -1.2064 O.3     1  UNL1       -0.4755
     29 C          20.4871   14.6102   -2.1235 C.3     1  UNL1        0.2053
     30 C          21.4826   15.4715   -2.8427 C.3     1  UNL1        0.0438
     31 C          21.2526   15.8461   -4.2767 C.3     1  UNL1        0.0038
     32 C          22.7082   15.9580   -2.1277 C.3     1  UNL1        0.0038
@<TRIPOS>BOND
     1     1     2    1
     2     3     2    1
     3     3     4    1
     4     4     5    2
     5     5     6    1
     6     3     7    1
     7     7     8   ar
     8     8     9   ar
     9     9    10   ar
    10    10    11   ar
    11    11    12   ar
    12    12    13    1
    13    13    14    1
    14    14    15   ar
    15    15    16   ar
    16    16    17   ar
    17    17    28    1
    18    28    29    1
    19    29    30    1
    20    30    31    1
    21    30    32    1
    22    17    18   ar
    23    18    19   ar
    24     9    22    1
    25    22    23   ar
    26    23    24   ar
    27    24    25   ar
    28    25    26   ar
    29    26    27   ar
    30     5     1    1
    31    12     7   ar
    32    19    14   ar
    33    27    22   ar
    34    15     3    1
    35     6    20    1
    36     6    21    1
@<TRIPOS>MOLECULE
*****
 32 36 0 0 0
SMALL
GASTEIGER

@<TRIPOS>ATOM
      1 O          25.6081   29.7247   -1.2706 O.2     1  UNL1       -0.4474
      2 C          24.3847   30.1579   -0.5187 C.3     1  UNL1        0.2391
      3 C          23.8782   28.9804    0.2605 C.3     1  UNL1        0.1721
      4 N          24.7886   27.8194   -0.0099 N.2     1  UNL1       -0.2161
      5 C          25.8578   28.2794   -0.9561 C.2     1  UNL1        0.2773
      6 N          26.9797   27.4412   -1.4936 N.pl3   1  UNL1       -0.3133
      7 C          23.0593   30.2251    0.4346 C.ar    1  UNL1        0.0399
      8 C          23.4457   31.4837   -0.2841 C.ar    1  UNL1        0.0011
      9 C          22.6268   32.7284   -0.1100 C.ar    1  UNL1        0.0030
     10 C          21.4216   32.7143    0.7827 C.ar    1  UNL1        0.0032
     11 C          21.0351   31.4557    1.5014 C.ar    1  UNL1        0.0372
     12 C          21.8540   30.2111    1.3273 C.ar    1  UNL1        0.1434
     13 O          21.4676   28.9525    2.0460 O.3     1  UNL1       -0.4540
     14 C          22.2865   27.7078    1.8719 C.ar    1  UNL1        0.1436
     15 C          23.4918   27.7218    0.9791 C.ar    1  UNL1        0.0429
     16 C          24.3107   26.4772    0.8051 C.ar    1  UNL1        0.0379
     17 C          23.9243   25.2185    1.5237 C.ar    1  UNL1        0.1385
     18 C          22.7189   25.2046    2.4165 C.ar    1  UNL1        0.0400
     19 C          21.9001   26.4492    2.5906 C.ar    1  UNL1        0.0403
     20 H          27.0599   26.4969   -1.2271 H       1  UNL1        0.1466
     21 H          27.6357   27.8354   -2.1128 H       1  UNL1        0.1466
     22 C          23.0132   33.9870   -0.8287 C.ar    1  UNL1        0.0384
     23 C          23.5881   35.1417   -0.0629 C.ar    1  UNL1        0.1022
     24 N          23.9745   36.4003   -0.7815 N.ar    1  UNL1       -0.2224
     25 C          23.7861   36.5044   -2.2660 C.ar    1  UNL1        0.1989
     26 N          23.2112   35.3497   -3.0318 N.ar    1  UNL1       -0.2224
     27 C          22.8248   34.0910   -2.3132 C.ar    1  UNL1        0.1022
     28 O          24.7431   23.9739    1.3496 O.3     1  UNL1       -0.4755
     29 C          25.9817   24.0032    0.5040 C.3     1  UNL1        0.2053
     30 C          26.0764   23.1381   -0.7177 C.3     1  UNL1        0.0438
     31 C          26.8880   23.5898   -1.8955 C.3     1  UNL1        0.0038
     32 C          25.3594   21.8214   -0.7617 C.3     1  UNL1        0.0038
@<TRIPOS>BOND
     1     1     2    1
     2     3     2    1
     3     3     4    1
     4     4     5    2
     5     5     6    1
     6     3     7    1
     7     7     8   ar
     8     8     9   ar
     9     9    10   ar
    10    10    11   ar
    11    11    12   ar
    12    12    13    1
    13    13    14    1
    14    14    15   ar
    15    15    16   ar
    16    16    17   ar
    17    17    28    1
    18    28    29    1
    19    29    30    1
    20    30    31    1
    21    30    32    1
    22    17    18   ar
    23    18    19   ar
    24     9    22    1
    25    22    23   ar
    26    23    24   ar
    27    24    25   ar
    28    25    26   ar
    29    26    27   ar
    30     5     1    1
    31    12     7   ar
    32    19    14   ar
    33    27    22   ar
    34    15     3    1
    35     6    20    1
    36     6    21    1
@<TRIPOS>MOLECULE
*****
 32 36 0 0 0
SMALL
GASTEIGER

@<TRIPOS>ATOM
      1 O          23.7587   23.3413    1.2269 O.2     1  UNL1       -0.4474
      2 C          23.1001   24.6550    1.5275 C.3     1  UNL1        0.2391
      3 C          21.6185   24.4282    1.5861 C.3     1  UNL1        0.1721
      4 N          21.3614   22.9742    1.3216 N.2     1  UNL1       -0.2161
      5 C          22.6841   22.3025    1.0997 C.2     1  UNL1        0.2773
      6 N          22.8952   20.8475    0.8026 N.pl3   1  UNL1       -0.3133
      7 C          22.0283   25.8497    1.8336 C.ar    1  UNL1        0.0399
      8 C          23.4797   26.2274    1.8065 C.ar    1  UNL1        0.0011
      9 C          23.8895   27.6490    2.0541 C.ar    1  UNL1        0.0030
     10 C          22.8479   28.6927    2.3288 C.ar    1  UNL1        0.0032
     11 C          21.3965   28.3150    2.3559 C.ar    1  UNL1        0.0372
     12 C          20.9867   26.8936    2.1084 C.ar    1  UNL1        0.1434
     13 O          19.5353   26.5158    2.1355 O.3     1  UNL1       -0.4540
     14 C          19.1255   25.0943    1.8879 C.ar    1  UNL1        0.1436
     15 C          20.1671   24.0505    1.6132 C.ar    1  UNL1        0.0429
     16 C          19.7573   22.6289    1.3656 C.ar    1  UNL1        0.0379
     17 C          18.3059   22.2512    1.3927 C.ar    1  UNL1        0.1385
     18 C          17.2643   23.2950    1.6675 C.ar    1  UNL1        0.0400
     19 C          17.6741   24.7166    1.9150 C.ar    1  UNL1        0.0403
     20 H          22.1223   20.2410    0.7384 H       1  UNL1        0.1466
     21 H          23.8066   20.4989    0.6719 H       1  UNL1        0.1466
     22 C          25.3409   28.0267    2.0270 C.ar    1  UNL1        0.0384
     23 C          25.7567   29.4308    2.3524 C.ar    1  UNL1        0.1022
     24 N          27.2081   29.8085    2.3253 N.ar    1  UNL1       -0.2224
     25 C          28.2437   28.7822    1.9727 C.ar    1  UNL1        0.1989
     26 N          27.8279   27.3782    1.6472 N.ar    1  UNL1       -0.2224
     27 C          26.3765   27.0005    1.6744 C.ar    1  UNL1        0.1022
     28 O          17.8961   20.8296    1.1451 O.3     1  UNL1       -0.4755
     29 C          18.7883   19.7052    1.5805 C.3     1  UNL1        0.2053
     30 C          19.2549   19.6260    3.0039 C.3     1  UNL1        0.0438
     31 C          18.2885   19.8713    4.1246 C.3     1  UNL1        0.0038
     32 C          20.6877   19.3014    3.3065 C.3     1  UNL1        0.0038
@<TRIPOS>BOND
     1     1     2    1
     2     3     2    1
     3     3     4    1
     4     4     5    2
     5     5     6    1
     6     3     7    1
     7     7     8   ar
     8     8     9   ar
     9     9    10   ar
    10    10    11   ar
    11    11    12   ar
    12    12    13    1
    13    13    14    1
    14    14    15   ar
    15    15    16   ar
    16    16    17   ar
    17    17    28    1
    18    28    29    1
    19    29    30    1
    20    30    31    1
    21    30    32    1
    22    17    18   ar
    23    18    19   ar
    24     9    22    1
    25    22    23   ar
    26    23    24   ar
    27    24    25   ar
    28    25    26   ar
    29    26    27   ar
    30     5     1    1
    31    12     7   ar
    32    19    14   ar
    33    27    22   ar
    34    15     3    1
    35     6    20    1
    36     6    21    1
@<TRIPOS>MOLECULE
*****
 32 36 0 0 0
SMALL
GASTEIGER

@<TRIPOS>ATOM
      1 O          25.8721   30.0304   -2.2705 O.2     1  UNL1       -0.4474
      2 C          24.9022   29.7138   -1.1709 C.3     1  UNL1        0.2391
      3 C          24.1643   30.9735   -0.8267 C.3     1  UNL1        0.1721
      4 N          24.6780   32.0687   -1.7136 N.2     1  UNL1       -0.2161
      5 C          25.7335   31.4858   -2.6059 C.2     1  UNL1        0.2773
      6 N          26.5135   32.2281   -3.6503 N.pl3   1  UNL1       -0.3133
      7 C          23.7519   29.7830   -0.0127 C.ar    1  UNL1        0.0399
      8 C          24.4043   28.4526   -0.2458 C.ar    1  UNL1        0.0011
      9 C          23.9919   27.2621    0.5683 C.ar    1  UNL1        0.0030
     10 C          22.9271   27.4021    1.6155 C.ar    1  UNL1        0.0032
     11 C          22.2747   28.7326    1.8486 C.ar    1  UNL1        0.0372
     12 C          22.6871   29.9230    1.0346 C.ar    1  UNL1        0.1434
     13 O          22.0347   31.2534    1.2677 O.3     1  UNL1       -0.4540
     14 C          22.4471   32.4439    0.4536 C.ar    1  UNL1        0.1436
     15 C          23.5119   32.3039   -0.5936 C.ar    1  UNL1        0.0429
     16 C          23.9243   33.4944   -1.4077 C.ar    1  UNL1        0.0379
     17 C          23.2719   34.8248   -1.1746 C.ar    1  UNL1        0.1385
     18 C          22.2071   34.9648   -0.1274 C.ar    1  UNL1        0.0400
     19 C          21.7947   33.7743    0.6867 C.ar    1  UNL1        0.0403
     20 H          26.3500   33.1877   -3.7974 H       1  UNL1        0.1466
     21 H          27.1889   31.7557   -4.1886 H       1  UNL1        0.1466
     22 C          24.6442   25.9317    0.3352 C.ar    1  UNL1        0.0384
     23 C          24.4545   24.8198    1.3240 C.ar    1  UNL1        0.1022
     24 N          25.1069   23.4893    1.0909 N.ar    1  UNL1       -0.2224
     25 C          25.9490   23.2708   -0.1311 C.ar    1  UNL1        0.1989
     26 N          26.1388   24.3828   -1.1199 N.ar    1  UNL1       -0.2224
     27 C          25.4864   25.7132   -0.8867 C.ar    1  UNL1        0.1022
     28 O          23.6843   36.0153   -1.9887 O.3     1  UNL1       -0.4755
     29 C          24.8940   36.8102   -1.5954 C.3     1  UNL1        0.2053
     30 C          25.0577   37.2755   -0.1788 C.3     1  UNL1        0.0438
     31 C          26.0621   36.6130    0.7169 C.3     1  UNL1        0.0038
     32 C          24.2171   38.4033    0.3420 C.3     1  UNL1        0.0038
@<TRIPOS>BOND
     1     1     2    1
     2     3     2    1
     3     3     4    1
     4     4     5    2
     5     5     6    1
     6     3     7    1
     7     7     8   ar
     8     8     9   ar
     9     9    10   ar
    10    10    11   ar
    11    11    12   ar
    12    12    13    1
    13    13    14    1
    14    14    15   ar
    15    15    16   ar
    16    16    17   ar
    17    17    28    1
    18    28    29    1
    19    29    30    1
    20    30    31    1
    21    30    32    1
    22    17    18   ar
    23    18    19   ar
    24     9    22    1
    25    22    23   ar
    26    23    24   ar
    27    24    25   ar
    28    25    26   ar
    29    26    27   ar
    30     5     1    1
    31    12     7   ar
    32    19    14   ar
    33    27    22   ar
    34    15     3    1
    35     6    20    1
    36     6    21    1
@<TRIPOS>MOLECULE
*****
 32 36 0 0 0
SMALL
GASTEIGER

@<TRIPOS>ATOM
      1 O          28.2739   23.5077   -3.3769 O.2     1  UNL1       -0.4474
      2 C          27.1716   22.7786   -2.6676 C.3     1  UNL1        0.2391
      3 C          26.8807   23.5079   -1.3896 C.3     1  UNL1        0.1721
      4 N          27.8034   24.6879   -1.3090 N.2     1  UNL1       -0.2161
      5 C          28.6644   24.6877   -2.5372 C.2     1  UNL1        0.2773
      6 N          29.7290   25.6914   -2.8677 N.pl3   1  UNL1       -0.3133
      7 C          26.0264   22.2944   -1.6074 C.ar    1  UNL1        0.0399
      8 C          26.2044   21.4641   -2.8439 C.ar    1  UNL1        0.0011
      9 C          25.3501   20.2505   -3.0618 C.ar    1  UNL1        0.0030
     10 C          24.3179   19.8673   -2.0432 C.ar    1  UNL1        0.0032
     11 C          24.1400   20.6976   -0.8067 C.ar    1  UNL1        0.0372
     12 C          24.9942   21.9111   -0.5888 C.ar    1  UNL1        0.1434
     13 O          24.8162   22.7414    0.6476 O.3     1  UNL1       -0.4540
     14 C          25.6705   23.9549    0.8655 C.ar    1  UNL1        0.1436
     15 C          26.7028   24.3382   -0.1531 C.ar    1  UNL1        0.0429
     16 C          27.5571   25.5518    0.0648 C.ar    1  UNL1        0.0379
     17 C          27.3791   26.3821    1.3013 C.ar    1  UNL1        0.1385
     18 C          26.3469   25.9988    2.3199 C.ar    1  UNL1        0.0400
     19 C          25.4926   24.7852    2.1020 C.ar    1  UNL1        0.0403
     20 H          29.9131   26.4354   -2.2497 H       1  UNL1        0.1466
     21 H          30.2437   25.6062   -3.7026 H       1  UNL1        0.1466
     22 C          25.5280   19.4202   -4.2983 C.ar    1  UNL1        0.0384
     23 C          26.8171   19.4804   -5.0631 C.ar    1  UNL1        0.1022
     24 N          26.9950   18.6501   -6.2996 N.ar    1  UNL1       -0.2224
     25 C          25.8840   17.7596   -6.7714 C.ar    1  UNL1        0.1989
     26 N          24.5949   17.6995   -6.0066 N.ar    1  UNL1       -0.2224
     27 C          24.4169   18.5297   -4.7701 C.ar    1  UNL1        0.1022
     28 O          28.2334   27.5957    1.5192 O.3     1  UNL1       -0.4755
     29 C          27.6029   28.8921    1.9335 C.3     1  UNL1        0.2053
     30 C          26.5537   29.5259    1.0689 C.3     1  UNL1        0.0438
     31 C          25.1293   29.5798    1.5358 C.3     1  UNL1        0.0038
     32 C          26.9290   30.1058   -0.2625 C.3     1  UNL1        0.0038
@<TRIPOS>BOND
     1     1     2    1
     2     3     2    1
     3     3     4    1
     4     4     5    2
     5     5     6    1
     6     3     7    1
     7     7     8   ar
     8     8     9   ar
     9     9    10   ar
    10    10    11   ar
    11    11    12   ar
    12    12    13    1
    13    13    14    1
    14    14    15   ar
    15    15    16   ar
    16    16    17   ar
    17    17    28    1
    18    28    29    1
    19    29    30    1
    20    30    31    1
    21    30    32    1
    22    17    18   ar
    23    18    19   ar
    24     9    22    1
    25    22    23   ar
    26    23    24   ar
    27    24    25   ar
    28    25    26   ar
    29    26    27   ar
    30     5     1    1
    31    12     7   ar
    32    19    14   ar
    33    27    22   ar
    34    15     3    1
    35     6    20    1
    36     6    21    1
@<TRIPOS>MOLECULE
*****
 32 36 0 0 0
SMALL
GASTEIGER

@<TRIPOS>ATOM
      1 O          17.4784   19.3491   -2.6877 O.2     1  UNL1       -0.4474
      2 C          18.0781   18.1089   -2.0942 C.3     1  UNL1        0.2391
      3 C          19.0896   18.5281   -1.0689 C.3     1  UNL1        0.1721
      4 N          19.1151   20.0273   -1.0288 N.2     1  UNL1       -0.2161
      5 C          18.1193   20.5347   -2.0293 C.2     1  UNL1        0.2773
      6 N          17.8175   21.9749   -2.3203 N.pl3   1  UNL1       -0.3133
      7 C          18.9540   17.0419   -1.2201 C.ar    1  UNL1        0.0399
      8 C          17.9796   16.4745   -2.2093 C.ar    1  UNL1        0.0011
      9 C          17.8440   14.9883   -2.3605 C.ar    1  UNL1        0.0030
     10 C          18.6827   14.0696   -1.5225 C.ar    1  UNL1        0.0032
     11 C          19.6571   14.6370   -0.5332 C.ar    1  UNL1        0.0372
     12 C          19.7927   16.1231   -0.3820 C.ar    1  UNL1        0.1434
     13 O          20.7671   16.6905    0.6072 O.3     1  UNL1       -0.4540
     14 C          20.9028   18.1767    0.7584 C.ar    1  UNL1        0.1436
     15 C          20.0640   19.0955   -0.0797 C.ar    1  UNL1        0.0429
     16 C          20.1997   20.5817    0.0715 C.ar    1  UNL1        0.0379
     17 C          21.1741   21.1491    1.0608 C.ar    1  UNL1        0.1385
     18 C          22.0128   20.2303    1.8988 C.ar    1  UNL1        0.0400
     19 C          21.8772   18.7441    1.7476 C.ar    1  UNL1        0.0403
     20 H          18.2934   22.6858   -1.8330 H       1  UNL1        0.1466
     21 H          17.1435   22.2093   -2.9985 H       1  UNL1        0.1466
     22 C          16.8696   14.4209   -3.3497 C.ar    1  UNL1        0.0384
     23 C          15.3953   14.5978   -3.1364 C.ar    1  UNL1        0.1022
     24 N          14.4210   14.0304   -4.1256 N.ar    1  UNL1       -0.2224
     25 C          14.9207   13.2860   -5.3282 C.ar    1  UNL1        0.1989
     26 N          16.3950   13.1091   -5.5415 N.ar    1  UNL1       -0.2224
     27 C          17.3694   13.6765   -4.5523 C.ar    1  UNL1        0.1022
     28 O          21.3097   22.6353    1.2119 O.3     1  UNL1       -0.4755
     29 C          20.1669   23.4414    1.7544 C.3     1  UNL1        0.2053
     30 C          18.9497   23.6792    0.9106 C.3     1  UNL1        0.0438
     31 C          17.6726   22.9539    1.2152 C.3     1  UNL1        0.0038
     32 C          19.0098   24.6424   -0.2377 C.3     1  UNL1        0.0038
@<TRIPOS>BOND
     1     1     2    1
     2     3     2    1
     3     3     4    1
     4     4     5    2
     5     5     6    1
     6     3     7    1
     7     7     8   ar
     8     8     9   ar
     9     9    10   ar
    10    10    11   ar
    11    11    12   ar
    12    12    13    1
    13    13    14    1
    14    14    15   ar
    15    15    16   ar
    16    16    17   ar
    17    17    28    1
    18    28    29    1
    19    29    30    1
    20    30    31    1
    21    30    32    1
    22    17    18   ar
    23    18    19   ar
    24     9    22    1
    25    22    23   ar
    26    23    24   ar
    27    24    25   ar
    28    25    26   ar
    29    26    27   ar
    30     5     1    1
    31    12     7   ar
    32    19    14   ar
    33    27    22   ar
    34    15     3    1
    35     6    20    1
    36     6    21    1
@<TRIPOS>MOLECULE
*****
 32 36 0 0 0
SMALL
GASTEIGER

@<TRIPOS>ATOM
      1 O          24.2905   22.0725    0.2833 O.2     1  UNL1       -0.4474
      2 C          25.4054   22.6866   -0.5102 C.3     1  UNL1        0.2391
      3 C          25.7606   21.7411   -1.6193 C.3     1  UNL1        0.1721
      4 N          24.8651   20.5426   -1.5111 N.2     1  UNL1       -0.2161
      5 C          23.9565   20.7474   -0.3353 C.2     1  UNL1        0.2773
      6 N          22.8996   19.7944    0.1387 N.pl3   1  UNL1       -0.3133
      7 C          26.5817   22.9962   -1.6012 C.ar    1  UNL1        0.0399
      8 C          26.3390   24.0362   -0.5478 C.ar    1  UNL1        0.0011
      9 C          27.1602   25.2914   -0.5298 C.ar    1  UNL1        0.0030
     10 C          28.2240   25.5065   -1.5651 C.ar    1  UNL1        0.0032
     11 C          28.4667   24.4666   -2.6185 C.ar    1  UNL1        0.0372
     12 C          27.6456   23.2115   -2.6365 C.ar    1  UNL1        0.1434
     13 O          27.8883   22.1715   -3.6899 O.3     1  UNL1       -0.4540
     14 C          27.0672   20.9164   -3.7079 C.ar    1  UNL1        0.1436
     15 C          26.0033   20.7011   -2.6726 C.ar    1  UNL1        0.0429
     16 C          25.1822   19.4460   -2.6907 C.ar    1  UNL1        0.0379
     17 C          25.4249   18.4060   -3.7440 C.ar    1  UNL1        0.1385
     18 C          26.4887   18.6213   -4.7793 C.ar    1  UNL1        0.0400
     19 C          27.3099   19.8764   -4.7613 C.ar    1  UNL1        0.0403
     20 H          22.7546   18.9442   -0.3362 H       1  UNL1        0.1466
     21 H          22.3508   20.0191    0.9246 H       1  UNL1        0.1466
     22 C          26.9175   26.3313    0.5236 C.ar    1  UNL1        0.0384
     23 C          26.9800   27.7874    0.1685 C.ar    1  UNL1        0.1022
     24 N          26.7372   28.8273    1.2218 N.ar    1  UNL1       -0.2224
     25 C          26.4320   28.4113    2.6303 C.ar    1  UNL1        0.1989
     26 N          26.3695   26.9552    2.9854 N.ar    1  UNL1       -0.2224
     27 C          26.6122   25.9152    1.9320 C.ar    1  UNL1        0.1022
     28 O          24.6037   17.1508   -3.7621 O.3     1  UNL1       -0.4755
     29 C          24.8833   16.0574   -2.7740 C.3     1  UNL1        0.2053
     30 C          26.2188   15.9835   -2.0950 C.3     1  UNL1        0.0438
     31 C          27.3719   15.3113   -2.7795 C.3     1  UNL1        0.0038
     32 C          26.4012   16.5818   -0.7317 C.3     1  UNL1        0.0038
@<TRIPOS>BOND
     1     1     2    1
     2     3     2    1
     3     3     4    1
     4     4     5    2
     5     5     6    1
     6     3     7    1
     7     7     8   ar
     8     8     9   ar
     9     9    10   ar
    10    10    11   ar
    11    11    12   ar
    12    12    13    1
    13    13    14    1
    14    14    15   ar
    15    15    16   ar
    16    16    17   ar
    17    17    28    1
    18    28    29    1
    19    29    30    1
    20    30    31    1
    21    30    32    1
    22    17    18   ar
    23    18    19   ar
    24     9    22    1
    25    22    23   ar
    26    23    24   ar
    27    24    25   ar
    28    25    26   ar
    29    26    27   ar
    30     5     1    1
    31    12     7   ar
    32    19    14   ar
    33    27    22   ar
    34    15     3    1
    35     6    20    1
    36     6    21    1
@<TRIPOS>MOLECULE
*****
 53 57 0 0 0
SMALL
GASTEIGER

@<TRIPOS>ATOM
      1 N          23.0623   27.6780    0.3232 N.am    1  UNL1       -0.3017
      2 C          23.6257   29.0564    0.5033 C.2     1  UNL1        0.2406
      3 O          23.8246   29.6110    1.8828 O.2     1  UNL1       -0.2733
      4 H          22.9318   27.3140   -0.5822 H       1  UNL1        0.1495
      5 C          22.6977   26.8542    1.5225 C.3     1  UNL1        0.1084
      6 C          21.3509   27.0163    2.1625 C.3     1  UNL1        0.1783
      7 O          21.0477   28.2424    2.9718 O.3     1  UNL1       -0.3777
      8 H          21.7227   28.9304    3.0812 H       1  UNL1        0.2106
      9 C          20.3070   25.9524    1.9933 C.3     1  UNL1        0.0860
     10 N          19.5367   25.4616    3.1831 N.4     1  UNL1        0.2556
     11 C          18.4929   24.3977    3.0140 C.3     1  UNL1        0.1293
     12 C          18.2194   23.8246    1.6550 C.ar    1  UNL1        0.0288
     13 C          18.9897   24.3155    0.4651 C.ar    1  UNL1       -0.0149
     14 C          20.0336   25.3794    0.6344 C.3     1  UNL1        0.0836
     15 C          18.7163   23.7425   -0.8938 C.ar    1  UNL1       -0.0042
     16 C          17.6725   22.6786   -1.0630 C.ar    1  UNL1       -0.0003
     17 C          16.9022   22.1877    0.1268 C.ar    1  UNL1       -0.0001
     18 C          17.1756   22.7608    1.4858 C.ar    1  UNL1        0.0011
     19 H          19.7226   25.8513    4.1072 H       1  UNL1        0.2037
     20 H          19.0129   25.1278    3.9922 H       1  UNL1        0.2037
     21 C          23.6799   25.8681    2.0818 C.3     1  UNL1        0.0487
     22 F          27.3985   23.7181   -0.8421 F       1  UNL1       -0.2041
     23 C          26.9538   24.7785    0.1211 C.ar    1  UNL1        0.1421
     24 C          25.5392   24.7931    0.6199 C.ar    1  UNL1        0.0256
     25 C          25.0945   25.8535    1.5831 C.ar    1  UNL1       -0.0160
     26 C          26.0644   26.8992    2.0477 C.ar    1  UNL1        0.0256
     27 C          27.4790   26.8845    1.5490 C.ar    1  UNL1        0.1421
     28 F          28.4489   27.9302    2.0135 F       1  UNL1       -0.2041
     29 C          27.9237   25.8241    0.5857 C.ar    1  UNL1        0.0592
     30 C          23.9903   29.8803   -0.6960 C.3     1  UNL1        0.1521
     31 N          23.6441   31.3392   -0.7371 N.am    1  UNL1       -0.2716
     32 C          24.3975   32.4036   -1.4784 C.3     1  UNL1        0.0960
     33 C          23.7027   33.7121   -1.2436 C.3     1  UNL1        0.0484
     34 C          22.5199   33.4563   -0.3572 C.3     1  UNL1        0.1274
     35 C          22.4837   31.9898   -0.0442 C.2     1  UNL1        0.2418
     36 O          21.4658   31.2958    0.8115 O.2     1  UNL1       -0.2732
     37 N          21.2910   33.5095    0.5012 N.am    1  UNL1       -0.2999
     38 C          19.9344   33.5814   -0.1348 C.2     1  UNL1        0.2232
     39 O          19.8067   33.6001   -1.6292 O.2     1  UNL1       -0.2751
     40 C          18.7055   33.6346    0.7237 C.3     1  UNL1        0.0946
     41 H          21.3748   33.4973    1.4821 H       1  UNL1        0.1498
     42 C          22.2993   34.9340   -0.4908 C.3     1  UNL1        0.0269
     43 C          23.4736   35.8613   -0.5961 C.3     1  UNL1        0.0021
     44 C          23.5747   36.8157   -1.7488 C.3     1  UNL1        0.0001
     45 C          24.5469   35.8341    0.4515 C.3     1  UNL1        0.0001
     46 C          24.7012   29.2451   -1.8542 C.3     1  UNL1        0.0339
     47 C          26.1844   29.0288   -1.7966 C.3     1  UNL1        0.0286
     48 C          27.1199   30.1598   -2.1057 C.ar    1  UNL1       -0.0221
     49 C          27.4411   30.4991   -3.5311 C.ar    1  UNL1       -0.0043
     50 C          28.3767   31.6301   -3.8402 C.ar    1  UNL1       -0.0003
     51 C          28.9909   32.4218   -2.7240 C.ar    1  UNL1       -0.0000
     52 C          28.6697   32.0825   -1.2986 C.ar    1  UNL1       -0.0003
     53 C          27.7341   30.9514   -0.9895 C.ar    1  UNL1       -0.0043
@<TRIPOS>UNITY_ATOM_ATTR
10 1
charge 1
@<TRIPOS>BOND
     1    22    23    1
     2    23    24   ar
     3    24    25   ar
     4    25    26   ar
     5    26    27   ar
     6    27    28    1
     7    27    29   ar
     8    25    21    1
     9     5    21    1
    10     5     1    1
    11     1     2   am
    12     2     3    2
    13     2    30    1
    14    30    31    1
    15    31    32    1
    16    32    33    1
    17    33    34    1
    18    34    37    1
    19    37    38   am
    20    38    39    2
    21    38    40    1
    22    34    42    1
    23    42    43    1
    24    43    44    1
    25    43    45    1
    26    34    35    1
    27    35    36    2
    28    30    46    1
    29    46    47    1
    30    47    48    1
    31    48    49   ar
    32    49    50   ar
    33    50    51   ar
    34    51    52   ar
    35    52    53   ar
    36     5     6    1
    37     6     7    1
    38     6     9    1
    39     9    10    1
    40    10    11    1
    41    11    12    1
    42    12    13   ar
    43    13    14    1
    44    13    15   ar
    45    15    16   ar
    46    16    17   ar
    47    17    18   ar
    48    29    23   ar
    49    35    31   am
    50    53    48   ar
    51     9    14    1
    52    18    12   ar
    53     1     4    1
    54    37    41    1
    55     7     8    1
    56    10    19    1
    57    10    20    1
@<TRIPOS>MOLECULE
*****
 53 57 0 0 0
SMALL
GASTEIGER

@<TRIPOS>ATOM
      1 N          23.4615   29.3576    0.1748 N.am    1  UNL1       -0.3017
      2 C          24.8971   29.7640    0.3285 C.2     1  UNL1        0.2406
      3 O          25.4500   30.0641    1.6902 O.2     1  UNL1       -0.2733
      4 H          23.0986   29.1607   -0.7190 H       1  UNL1        0.1495
      5 C          22.5786   29.2513    1.3828 C.3     1  UNL1        0.1084
      6 C          22.7631   28.1191    2.3492 C.3     1  UNL1        0.1783
      7 O          23.6645   28.2858    3.5365 O.3     1  UNL1       -0.3777
      8 H          24.1281   29.1258    3.6793 H       1  UNL1        0.2106
      9 C          22.0461   26.8201    2.1284 C.3     1  UNL1        0.0860
     10 N          22.8184   25.5349    2.0865 N.4     1  UNL1        0.2556
     11 C          22.1015   24.2360    1.8657 C.3     1  UNL1        0.1293
     12 C          20.6122   24.2222    1.6868 C.ar    1  UNL1        0.0288
     13 C          19.8399   25.5074    1.7287 C.ar    1  UNL1       -0.0149
     14 C          20.5569   26.8064    1.9495 C.3     1  UNL1        0.0836
     15 C          18.3507   25.4937    1.5499 C.ar    1  UNL1       -0.0042
     16 C          17.6338   24.1948    1.3291 C.ar    1  UNL1       -0.0003
     17 C          18.4062   22.9096    1.2872 C.ar    1  UNL1       -0.0001
     18 C          19.8954   22.9233    1.4660 C.ar    1  UNL1        0.0011
     19 H          23.8311   25.5443    2.2081 H       1  UNL1        0.2037
     20 H          23.3436   24.6610    2.0580 H       1  UNL1        0.2037
     21 C          21.5113   30.2772    1.6243 C.3     1  UNL1        0.0487
     22 F          23.5459   35.0221    1.0363 F       1  UNL1       -0.2041
     23 C          22.5737   33.9633    0.6077 C.ar    1  UNL1        0.1421
     24 C          22.5286   32.6496    1.3303 C.ar    1  UNL1        0.0256
     25 C          21.5564   31.5909    0.9017 C.ar    1  UNL1       -0.0160
     26 C          20.6292   31.8458   -0.2496 C.ar    1  UNL1        0.0256
     27 C          20.6743   33.1595   -0.9722 C.ar    1  UNL1        0.1421
     28 F          19.7471   33.4144   -2.1234 F       1  UNL1       -0.2041
     29 C          21.6466   34.2183   -0.5435 C.ar    1  UNL1        0.0592
     30 C          25.7800   29.8703   -0.8795 C.3     1  UNL1        0.1521
     31 N          26.2787   31.2119   -1.3283 N.am    1  UNL1       -0.2716
     32 C          25.5110   32.2107   -2.1426 C.3     1  UNL1        0.0960
     33 C          26.3904   33.4064   -2.3591 C.3     1  UNL1        0.0484
     34 C          27.7017   33.1465   -1.6786 C.3     1  UNL1        0.1274
     35 C          27.6326   31.7903   -1.0415 C.2     1  UNL1        0.2418
     36 O          28.7256   31.1287   -0.2556 O.2     1  UNL1       -0.2732
     37 N          29.0880   33.1714   -1.1062 N.am    1  UNL1       -0.2999
     38 C          30.2646   32.8424   -1.9764 C.2     1  UNL1        0.2232
     39 O          30.0552   32.4885   -3.4189 O.2     1  UNL1       -0.2751
     40 C          31.6510   32.8672   -1.4039 C.3     1  UNL1        0.0946
     41 H          29.2256   33.4036   -0.1594 H       1  UNL1        0.1498
     42 C          28.0606   34.5079   -2.1960 C.3     1  UNL1        0.0269
     43 C          27.5709   35.7341   -1.4841 C.3     1  UNL1        0.0021
     44 C          27.1472   36.9391   -2.2705 C.3     1  UNL1        0.0001
     45 C          27.5049   35.7551    0.0144 C.3     1  UNL1        0.0001
     46 C          26.1642   28.6350   -1.6388 C.3     1  UNL1        0.0339
     47 C          27.2144   27.7145   -1.0914 C.3     1  UNL1        0.0286
     48 C          26.8257   26.5975   -0.1687 C.ar    1  UNL1       -0.0221
     49 C          26.3793   25.2807   -0.7316 C.ar    1  UNL1       -0.0043
     50 C          25.9907   24.1638    0.1910 C.ar    1  UNL1       -0.0003
     51 C          26.0484   24.3636    1.6766 C.ar    1  UNL1       -0.0000
     52 C          26.4948   25.6804    2.2395 C.ar    1  UNL1       -0.0003
     53 C          26.8835   26.7974    1.3167 C.ar    1  UNL1       -0.0043
@<TRIPOS>UNITY_ATOM_ATTR
10 1
charge 1
@<TRIPOS>BOND
     1    22    23    1
     2    23    24   ar
     3    24    25   ar
     4    25    26   ar
     5    26    27   ar
     6    27    28    1
     7    27    29   ar
     8    25    21    1
     9     5    21    1
    10     5     1    1
    11     1     2   am
    12     2     3    2
    13     2    30    1
    14    30    31    1
    15    31    32    1
    16    32    33    1
    17    33    34    1
    18    34    37    1
    19    37    38   am
    20    38    39    2
    21    38    40    1
    22    34    42    1
    23    42    43    1
    24    43    44    1
    25    43    45    1
    26    34    35    1
    27    35    36    2
    28    30    46    1
    29    46    47    1
    30    47    48    1
    31    48    49   ar
    32    49    50   ar
    33    50    51   ar
    34    51    52   ar
    35    52    53   ar
    36     5     6    1
    37     6     7    1
    38     6     9    1
    39     9    10    1
    40    10    11    1
    41    11    12    1
    42    12    13   ar
    43    13    14    1
    44    13    15   ar
    45    15    16   ar
    46    16    17   ar
    47    17    18   ar
    48    29    23   ar
    49    35    31   am
    50    53    48   ar
    51     9    14    1
    52    18    12   ar
    53     1     4    1
    54    37    41    1
    55     7     8    1
    56    10    19    1
    57    10    20    1
@<TRIPOS>MOLECULE
*****
 53 57 0 0 0
SMALL
GASTEIGER

@<TRIPOS>ATOM
      1 N          23.8887   29.5002    0.4044 N.am    1  UNL1       -0.3017
      2 C          25.3311   29.6576    0.7846 C.2     1  UNL1        0.2406
      3 O          25.7320   29.6405    2.2299 O.2     1  UNL1       -0.2733
      4 H          23.6256   29.5114   -0.5442 H       1  UNL1        0.1495
      5 C          22.8471   29.3258    1.4696 C.3     1  UNL1        0.1084
      6 C          22.9572   28.1944    2.4482 C.3     1  UNL1        0.1783
      7 O          23.8025   28.3461    3.6781 O.3     1  UNL1       -0.3777
      8 H          24.2778   29.1759    3.8405 H       1  UNL1        0.2106
      9 C          22.2222   26.9111    2.1970 C.3     1  UNL1        0.0860
     10 N          22.9819   25.6239    2.0709 N.4     1  UNL1        0.2556
     11 C          22.2469   24.3407    1.8197 C.3     1  UNL1        0.1293
     12 C          20.7521   24.3447    1.6945 C.ar    1  UNL1        0.0288
     13 C          19.9923   25.6319    1.8206 C.ar    1  UNL1       -0.0149
     14 C          20.7274   26.9152    2.0718 C.3     1  UNL1        0.0836
     15 C          18.4976   25.6360    1.6954 C.ar    1  UNL1       -0.0042
     16 C          17.7626   24.3528    1.4442 C.ar    1  UNL1       -0.0003
     17 C          18.5223   23.0656    1.3181 C.ar    1  UNL1       -0.0001
     18 C          20.0171   23.0615    1.4433 C.ar    1  UNL1        0.0011
     19 H          23.9983   25.6212    2.1561 H       1  UNL1        0.2037
     20 H          23.4985   24.7486    1.9852 H       1  UNL1        0.2037
     21 C          21.6953   30.2828    1.5562 C.3     1  UNL1        0.0487
     22 F          20.0271   33.3037   -2.3285 F       1  UNL1       -0.2041
     23 C          20.9084   33.0932   -1.1331 C.ar    1  UNL1        0.1421
     24 C          20.8612   31.7932   -0.3861 C.ar    1  UNL1        0.0256
     25 C          21.7425   31.5827    0.8093 C.ar    1  UNL1       -0.0160
     26 C          22.6710   32.6721    1.2578 C.ar    1  UNL1        0.0256
     27 C          22.7181   33.9721    0.5108 C.ar    1  UNL1        0.1421
     28 F          23.6466   35.0615    0.9593 F       1  UNL1       -0.2041
     29 C          21.8368   34.1826   -0.6846 C.ar    1  UNL1        0.0592
     30 C          26.3727   29.8320   -0.2806 C.3     1  UNL1        0.1521
     31 N          26.6248   31.1889   -0.8681 N.am    1  UNL1       -0.2716
     32 C          27.9387   31.9125   -0.8844 C.3     1  UNL1        0.0960
     33 C          27.7332   33.2313   -1.5688 C.3     1  UNL1        0.0484
     34 C          26.2922   33.3229   -1.9754 C.3     1  UNL1        0.1274
     35 C          25.6072   32.0607   -1.5423 C.2     1  UNL1        0.2418
     36 O          24.1589   31.7285   -1.7475 O.2     1  UNL1       -0.2732
     37 N          24.9352   33.6946   -2.4953 N.am    1  UNL1       -0.2999
     38 C          24.6138   33.5143   -3.9493 C.2     1  UNL1        0.2232
     39 O          25.6494   32.9622   -4.8835 O.2     1  UNL1       -0.2751
     40 C          23.2567   33.8861   -4.4691 C.3     1  UNL1        0.0946
     41 H          24.2554   34.0570   -1.8822 H       1  UNL1        0.1498
     42 C          26.6935   34.6628   -2.5171 C.3     1  UNL1        0.0269
     43 C          26.2539   35.9161   -1.8199 C.3     1  UNL1        0.0021
     44 C          25.5501   36.9947   -2.5887 C.3     1  UNL1        0.0001
     45 C          26.5182   36.0906   -0.3536 C.3     1  UNL1        0.0001
     46 C          27.1623   28.6494   -0.7584 C.3     1  UNL1        0.0339
     47 C          26.4530   27.4097   -1.2166 C.3     1  UNL1        0.0286
     48 C          26.3248   26.2344   -0.2936 C.ar    1  UNL1       -0.0221
     49 C          25.8111   24.9246   -0.8138 C.ar    1  UNL1       -0.0043
     50 C          25.6829   23.7493    0.1093 C.ar    1  UNL1       -0.0003
     51 C          26.0685   23.8837    1.5527 C.ar    1  UNL1       -0.0000
     52 C          26.5823   25.1934    2.0729 C.ar    1  UNL1       -0.0003
     53 C          26.7104   26.3688    1.1498 C.ar    1  UNL1       -0.0043
@<TRIPOS>UNITY_ATOM_ATTR
10 1
charge 1
@<TRIPOS>BOND
     1    22    23    1
     2    23    24   ar
     3    24    25   ar
     4    25    26   ar
     5    26    27   ar
     6    27    28    1
     7    27    29   ar
     8    25    21    1
     9     5    21    1
    10     5     1    1
    11     1     2   am
    12     2     3    2
    13     2    30    1
    14    30    31    1
    15    31    32    1
    16    32    33    1
    17    33    34    1
    18    34    37    1
    19    37    38   am
    20    38    39    2
    21    38    40    1
    22    34    42    1
    23    42    43    1
    24    43    44    1
    25    43    45    1
    26    34    35    1
    27    35    36    2
    28    30    46    1
    29    46    47    1
    30    47    48    1
    31    48    49   ar
    32    49    50   ar
    33    50    51   ar
    34    51    52   ar
    35    52    53   ar
    36     5     6    1
    37     6     7    1
    38     6     9    1
    39     9    10    1
    40    10    11    1
    41    11    12    1
    42    12    13   ar
    43    13    14    1
    44    13    15   ar
    45    15    16   ar
    46    16    17   ar
    47    17    18   ar
    48    29    23   ar
    49    35    31   am
    50    53    48   ar
    51     9    14    1
    52    18    12   ar
    53     1     4    1
    54    37    41    1
    55     7     8    1
    56    10    19    1
    57    10    20    1
@<TRIPOS>MOLECULE
*****
 53 57 0 0 0
SMALL
GASTEIGER

@<TRIPOS>ATOM
      1 N          23.2705   27.3285    1.2680 N.am    1  UNL1       -0.3017
      2 C          23.9249   28.5132    1.9147 C.2     1  UNL1        0.2406
      3 O          24.4805   28.3979    3.3033 O.2     1  UNL1       -0.2733
      4 H          22.9058   27.4042    0.3566 H       1  UNL1        0.1495
      5 C          23.1715   26.0286    2.0099 C.3     1  UNL1        0.1084
      6 C          21.8675   25.6126    2.6234 C.3     1  UNL1        0.1783
      7 O          21.5643   25.9628    4.0501 O.3     1  UNL1       -0.3777
      8 H          22.2115   26.4583    4.5759 H       1  UNL1        0.2106
      9 C          20.8666   24.8463    1.8102 C.3     1  UNL1        0.0860
     10 N          19.7697   25.5741    1.0911 N.4     1  UNL1        0.2556
     11 C          18.7688   24.8079    0.2780 C.3     1  UNL1        0.1293
     12 C          18.8649   23.3139    0.1839 C.ar    1  UNL1        0.0288
     13 C          19.9618   22.5861    0.9030 C.ar    1  UNL1       -0.0149
     14 C          20.9627   23.3524    1.7162 C.3     1  UNL1        0.0836
     15 C          20.0579   21.0922    0.8090 C.ar    1  UNL1       -0.0042
     16 C          19.0570   20.3261   -0.0042 C.ar    1  UNL1       -0.0003
     17 C          17.9601   21.0538   -0.7233 C.ar    1  UNL1       -0.0001
     18 C          17.8640   22.5478   -0.6293 C.ar    1  UNL1        0.0011
     19 H          19.7044   26.5900    1.1551 H       1  UNL1        0.2037
     20 H          19.0238   26.0690    0.6021 H       1  UNL1        0.2037
     21 C          24.3765   25.1447    2.1382 C.3     1  UNL1        0.0487
     22 F          26.0687   21.8484   -1.5047 F       1  UNL1       -0.2041
     23 C          26.0766   23.2137   -0.8835 C.ar    1  UNL1        0.1421
     24 C          25.2226   23.4965    0.3168 C.ar    1  UNL1        0.0256
     25 C          25.2305   24.8618    0.9379 C.ar    1  UNL1       -0.0160
     26 C          26.0923   25.9444    0.3587 C.ar    1  UNL1        0.0256
     27 C          26.9463   25.6615   -0.8416 C.ar    1  UNL1        0.1421
     28 F          27.8081   26.7440   -1.4208 F       1  UNL1       -0.2041
     29 C          26.9384   24.2961   -1.4627 C.ar    1  UNL1        0.0592
     30 C          24.0239   29.8131    1.1728 C.3     1  UNL1        0.1521
     31 N          25.0934   30.0072    0.1391 N.am    1  UNL1       -0.2716
     32 C          26.5382   29.6310    0.2839 C.3     1  UNL1        0.0960
     33 C          27.2436   30.0029   -0.9865 C.3     1  UNL1        0.0484
     34 C          26.2347   30.6090   -1.9165 C.3     1  UNL1        0.1274
     35 C          24.9058   30.6117   -1.2208 C.2     1  UNL1        0.2418
     36 O          23.6159   31.1281   -1.7859 O.2     1  UNL1       -0.2732
     37 N          25.4703   31.2422   -3.0411 N.am    1  UNL1       -0.2999
     38 C          25.0183   30.4088   -4.2035 C.2     1  UNL1        0.2232
     39 O          25.3307   28.9422   -4.2414 O.2     1  UNL1       -0.2751
     40 C          24.2538   31.0421   -5.3281 C.3     1  UNL1        0.0946
     41 H          25.2652   32.2048   -3.0163 H       1  UNL1        0.1498
     42 C          27.4038   30.7387   -2.8473 C.3     1  UNL1        0.0269
     43 C          28.0565   32.0739   -3.0504 C.3     1  UNL1        0.0021
     44 C          28.5603   32.4638   -4.4084 C.3     1  UNL1        0.0001
     45 C          28.2052   33.0193   -1.8953 C.3     1  UNL1        0.0001
     46 C          23.0533   30.9190    1.4646 C.3     1  UNL1        0.0339
     47 C          21.5857   30.7081    1.2377 C.3     1  UNL1        0.0286
     48 C          20.7102   31.8676    0.8649 C.ar    1  UNL1       -0.0221
     49 C          19.3251   31.9739    1.4307 C.ar    1  UNL1       -0.0043
     50 C          18.4496   33.1334    1.0579 C.ar    1  UNL1       -0.0003
     51 C          18.9591   34.1866    0.1192 C.ar    1  UNL1       -0.0000
     52 C          20.3442   34.0803   -0.4466 C.ar    1  UNL1       -0.0003
     53 C          21.2198   32.9207   -0.0738 C.ar    1  UNL1       -0.0043
@<TRIPOS>UNITY_ATOM_ATTR
10 1
charge 1
@<TRIPOS>BOND
     1    22    23    1
     2    23    24   ar
     3    24    25   ar
     4    25    26   ar
     5    26    27   ar
     6    27    28    1
     7    27    29   ar
     8    25    21    1
     9     5    21    1
    10     5     1    1
    11     1     2   am
    12     2     3    2
    13     2    30    1
    14    30    31    1
    15    31    32    1
    16    32    33    1
    17    33    34    1
    18    34    37    1
    19    37    38   am
    20    38    39    2
    21    38    40    1
    22    34    42    1
    23    42    43    1
    24    43    44    1
    25    43    45    1
    26    34    35    1
    27    35    36    2
    28    30    46    1
    29    46    47    1
    30    47    48    1
    31    48    49   ar
    32    49    50   ar
    33    50    51   ar
    34    51    52   ar
    35    52    53   ar
    36     5     6    1
    37     6     7    1
    38     6     9    1
    39     9    10    1
    40    10    11    1
    41    11    12    1
    42    12    13   ar
    43    13    14    1
    44    13    15   ar
    45    15    16   ar
    46    16    17   ar
    47    17    18   ar
    48    29    23   ar
    49    35    31   am
    50    53    48   ar
    51     9    14    1
    52    18    12   ar
    53     1     4    1
    54    37    41    1
    55     7     8    1
    56    10    19    1
    57    10    20    1
@<TRIPOS>MOLECULE
*****
 53 57 0 0 0
SMALL
GASTEIGER

@<TRIPOS>ATOM
      1 N          26.2075   27.4471   -1.2033 N.am    1  UNL1       -0.3017
      2 C          26.6901   28.8502   -0.9832 C.2     1  UNL1        0.2406
      3 O          27.6840   29.1398    0.1024 O.2     1  UNL1       -0.2733
      4 H          25.5551   27.2570   -1.9157 H       1  UNL1        0.1495
      5 C          26.7187   26.3337   -0.3379 C.3     1  UNL1        0.1084
      6 C          27.6645   25.3169   -0.9049 C.3     1  UNL1        0.1783
      7 O          29.1417   25.5772   -0.8919 O.3     1  UNL1       -0.3777
      8 H          29.4853   26.4031   -0.5168 H       1  UNL1        0.2106
      9 C          27.1331   24.0397   -1.4850 C.3     1  UNL1        0.0860
     10 N          27.6056   23.5731   -2.8300 N.4     1  UNL1        0.2556
     11 C          27.0743   22.2960   -3.4101 C.3     1  UNL1        0.1293
     12 C          26.0704   21.4853   -2.6452 C.ar    1  UNL1        0.0288
     13 C          25.5978   21.9518   -1.3002 C.ar    1  UNL1       -0.0149
     14 C          26.1292   23.2291   -0.7201 C.3     1  UNL1        0.0836
     15 C          24.5940   21.1412   -0.5352 C.ar    1  UNL1       -0.0042
     16 C          24.0626   19.8641   -1.1153 C.ar    1  UNL1       -0.0003
     17 C          24.5352   19.3976   -2.4603 C.ar    1  UNL1       -0.0001
     18 C          25.5390   20.2082   -3.2253 C.ar    1  UNL1        0.0011
     19 H          28.2882   24.1243   -3.3502 H       1  UNL1        0.2037
     20 H          27.9269   23.2559   -3.7446 H       1  UNL1        0.2037
     21 C          26.2842   26.2370    1.0945 C.3     1  UNL1        0.0487
     22 F          21.9971   29.0438    1.9560 F       1  UNL1       -0.2041
     23 C          22.6834   27.7126    1.8734 C.ar    1  UNL1        0.1421
     24 C          24.1406   27.6404    1.5252 C.ar    1  UNL1        0.0256
     25 C          24.8270   26.3093    1.4427 C.ar    1  UNL1       -0.0160
     26 C          24.0561   25.0502    1.7084 C.ar    1  UNL1        0.0256
     27 C          22.5988   25.1224    2.0567 C.ar    1  UNL1        0.1421
     28 F          21.8279   23.8634    2.3224 F       1  UNL1       -0.2041
     29 C          21.9125   26.4537    2.1392 C.ar    1  UNL1        0.0592
     30 C          26.1788   29.9636   -1.8485 C.3     1  UNL1        0.1521
     31 N          24.8810   30.6374   -1.5148 N.am    1  UNL1       -0.2716
     32 C          23.5359   29.9768   -1.4490 C.3     1  UNL1        0.0960
     33 C          22.5239   31.0213   -1.0818 C.3     1  UNL1        0.0484
     34 C          23.2435   32.3275   -0.9206 C.3     1  UNL1        0.1274
     35 C          24.7003   32.0902   -1.1882 C.2     1  UNL1        0.2418
     36 O          25.7857   33.1243   -1.1381 O.2     1  UNL1       -0.2732
     37 N          23.6776   33.7453   -0.6936 N.am    1  UNL1       -0.2999
     38 C          23.3378   34.8040   -1.7004 C.2     1  UNL1        0.2232
     39 O          22.5641   34.4450   -2.9342 O.2     1  UNL1       -0.2751
     40 C          23.7719   36.2218   -1.4733 C.3     1  UNL1        0.0946
     41 H          24.1854   33.9809    0.1162 H       1  UNL1        0.1498
     42 C          21.8775   32.8611   -0.6056 C.3     1  UNL1        0.0269
     43 C          21.2729   32.6236    0.7465 C.3     1  UNL1        0.0021
     44 C          19.7949   32.4050    0.8794 C.3     1  UNL1        0.0001
     45 C          22.1465   32.6047    1.9658 C.3     1  UNL1        0.0001
     46 C          26.9655   30.4032   -3.0477 C.3     1  UNL1        0.0339
     47 C          26.9327   29.5879   -4.3063 C.3     1  UNL1        0.0286
     48 C          25.8581   29.8250   -5.3256 C.ar    1  UNL1       -0.0221
     49 C          25.9354   29.1566   -6.6663 C.ar    1  UNL1       -0.0043
     50 C          24.8608   29.3936   -7.6856 C.ar    1  UNL1       -0.0003
     51 C          23.7088   30.2991   -7.3643 C.ar    1  UNL1       -0.0000
     52 C          23.6315   30.9675   -6.0236 C.ar    1  UNL1       -0.0003
     53 C          24.7062   30.7304   -5.0043 C.ar    1  UNL1       -0.0043
@<TRIPOS>UNITY_ATOM_ATTR
10 1
charge 1
@<TRIPOS>BOND
     1    22    23    1
     2    23    24   ar
     3    24    25   ar
     4    25    26   ar
     5    26    27   ar
     6    27    28    1
     7    27    29   ar
     8    25    21    1
     9     5    21    1
    10     5     1    1
    11     1     2   am
    12     2     3    2
    13     2    30    1
    14    30    31    1
    15    31    32    1
    16    32    33    1
    17    33    34    1
    18    34    37    1
    19    37    38   am
    20    38    39    2
    21    38    40    1
    22    34    42    1
    23    42    43    1
    24    43    44    1
    25    43    45    1
    26    34    35    1
    27    35    36    2
    28    30    46    1
    29    46    47    1
    30    47    48    1
    31    48    49   ar
    32    49    50   ar
    33    50    51   ar
    34    51    52   ar
    35    52    53   ar
    36     5     6    1
    37     6     7    1
    38     6     9    1
    39     9    10    1
    40    10    11    1
    41    11    12    1
    42    12    13   ar
    43    13    14    1
    44    13    15   ar
    45    15    16   ar
    46    16    17   ar
    47    17    18   ar
    48    29    23   ar
    49    35    31   am
    50    53    48   ar
    51     9    14    1
    52    18    12   ar
    53     1     4    1
    54    37    41    1
    55     7     8    1
    56    10    19    1
    57    10    20    1
@<TRIPOS>MOLECULE
*****
 53 57 0 0 0
SMALL
GASTEIGER

@<TRIPOS>ATOM
      1 N          24.5453   24.4285    0.0298 N.am    1  UNL1       -0.3017
      2 C          24.3473   25.1014    1.3557 C.2     1  UNL1        0.2406
      3 O          25.3229   24.8643    2.4702 O.2     1  UNL1       -0.2733
      4 H          23.9050   24.5841   -0.7016 H       1  UNL1        0.1495
      5 C          25.7188   23.5186   -0.1816 C.3     1  UNL1        0.1084
      6 C          26.9715   24.0453   -0.8166 C.3     1  UNL1        0.1783
      7 O          27.6951   25.2050   -0.1989 O.3     1  UNL1       -0.3777
      8 H          27.3529   25.6143    0.6112 H       1  UNL1        0.2106
      9 C          27.5007   23.4124   -2.0695 C.3     1  UNL1        0.0860
     10 N          28.9370   23.6033   -2.4572 N.4     1  UNL1        0.2556
     11 C          29.4662   22.9705   -3.7099 C.3     1  UNL1        0.1293
     12 C          28.5590   22.1466   -4.5750 C.ar    1  UNL1        0.0288
     13 C          27.1226   21.9557   -4.1873 C.ar    1  UNL1       -0.0149
     14 C          26.5934   22.5886   -2.9345 C.3     1  UNL1        0.0836
     15 C          26.2154   21.1319   -5.0523 C.ar    1  UNL1       -0.0042
     16 C          26.7446   20.4991   -6.3050 C.ar    1  UNL1       -0.0003
     17 C          28.1809   20.6900   -6.6928 C.ar    1  UNL1       -0.0001
     18 C          29.0882   21.5138   -5.8278 C.ar    1  UNL1        0.0011
     19 H          29.5539   24.1635   -1.8690 H       1  UNL1        0.2037
     20 H          29.9138   23.7332   -2.7208 H       1  UNL1        0.2037
     21 C          25.6398   22.0818    0.2420 C.3     1  UNL1        0.0487
     22 F          24.1088   18.6504   -3.3471 F       1  UNL1       -0.2041
     23 C          23.8156   19.4721   -2.1269 C.ar    1  UNL1        0.1421
     24 C          24.8743   20.3661   -1.5525 C.ar    1  UNL1        0.0256
     25 C          24.5811   21.1877   -0.3323 C.ar    1  UNL1       -0.0160
     26 C          23.2292   21.1153    0.3136 C.ar    1  UNL1        0.0256
     27 C          22.1705   20.2212   -0.2607 C.ar    1  UNL1        0.1421
     28 F          20.8187   20.1488    0.3851 F       1  UNL1       -0.2041
     29 C          22.4638   19.3996   -1.4810 C.ar    1  UNL1        0.0592
     30 C          23.1737   26.0114    1.5672 C.3     1  UNL1        0.1521
     31 N          23.2851   27.4692    1.2322 N.am    1  UNL1       -0.2716
     32 C          23.1845   28.6074    2.2040 C.3     1  UNL1        0.0960
     33 C          23.3539   29.8865    1.4390 C.3     1  UNL1        0.0484
     34 C          23.5592   29.5388   -0.0057 C.3     1  UNL1        0.1274
     35 C          23.5167   28.0448   -0.1335 C.2     1  UNL1        0.2418
     36 O          23.6775   27.2637   -1.4039 O.2     1  UNL1       -0.2732
     37 N          23.7832   29.5018   -1.4884 N.am    1  UNL1       -0.2999
     38 C          25.1611   29.7078   -2.0441 C.2     1  UNL1        0.2232
     39 O          26.3152   29.9507   -1.1172 O.2     1  UNL1       -0.2751
     40 C          25.3851   29.6708   -3.5269 C.3     1  UNL1        0.0946
     41 H          23.0258   29.3424   -2.0968 H       1  UNL1        0.1498
     42 C          23.6486   31.0250   -0.1878 C.3     1  UNL1        0.0269
     43 C          22.4662   31.8920    0.1291 C.3     1  UNL1        0.0021
     44 C          21.1826   31.7154   -0.6265 C.3     1  UNL1        0.0001
     45 C          22.5676   32.9356    1.2019 C.3     1  UNL1        0.0001
     46 C          21.8887   25.4634    2.1136 C.3     1  UNL1        0.0339
     47 C          20.5777   25.9116    1.5388 C.3     1  UNL1        0.0286
     48 C          19.5529   24.8965    1.1276 C.ar    1  UNL1       -0.0221
     49 C          19.3291   24.6031   -0.3264 C.ar    1  UNL1       -0.0043
     50 C          18.3043   23.5880   -0.7376 C.ar    1  UNL1       -0.0003
     51 C          17.5031   22.8661    0.3051 C.ar    1  UNL1       -0.0000
     52 C          17.7269   23.1595    1.7590 C.ar    1  UNL1       -0.0003
     53 C          18.7518   24.1747    2.1702 C.ar    1  UNL1       -0.0043
@<TRIPOS>UNITY_ATOM_ATTR
10 1
charge 1
@<TRIPOS>BOND
     1    22    23    1
     2    23    24   ar
     3    24    25   ar
     4    25    26   ar
     5    26    27   ar
     6    27    28    1
     7    27    29   ar
     8    25    21    1
     9     5    21    1
    10     5     1    1
    11     1     2   am
    12     2     3    2
    13     2    30    1
    14    30    31    1
    15    31    32    1
    16    32    33    1
    17    33    34    1
    18    34    37    1
    19    37    38   am
    20    38    39    2
    21    38    40    1
    22    34    42    1
    23    42    43    1
    24    43    44    1
    25    43    45    1
    26    34    35    1
    27    35    36    2
    28    30    46    1
    29    46    47    1
    30    47    48    1
    31    48    49   ar
    32    49    50   ar
    33    50    51   ar
    34    51    52   ar
    35    52    53   ar
    36     5     6    1
    37     6     7    1
    38     6     9    1
    39     9    10    1
    40    10    11    1
    41    11    12    1
    42    12    13   ar
    43    13    14    1
    44    13    15   ar
    45    15    16   ar
    46    16    17   ar
    47    17    18   ar
    48    29    23   ar
    49    35    31   am
    50    53    48   ar
    51     9    14    1
    52    18    12   ar
    53     1     4    1
    54    37    41    1
    55     7     8    1
    56    10    19    1
    57    10    20    1
@<TRIPOS>MOLECULE
*****
 53 57 0 0 0
SMALL
GASTEIGER

@<TRIPOS>ATOM
      1 N          24.9343   32.5235   -0.8977 N.am    1  UNL1       -0.3017
      2 C          25.6740   31.4346   -1.6168 C.2     1  UNL1        0.2406
      3 O          25.5286   31.2836   -3.1021 O.2     1  UNL1       -0.2733
      4 H          25.0297   32.6227    0.0771 H       1  UNL1        0.1495
      5 C          24.0491   33.4613   -1.6639 C.3     1  UNL1        0.1084
      6 C          24.5595   34.8128   -2.0675 C.3     1  UNL1        0.1783
      7 O          23.6634   35.7635   -2.8046 O.3     1  UNL1       -0.3777
      8 H          22.7538   35.5042   -3.0202 H       1  UNL1        0.2106
      9 C          25.9659   35.2138   -1.7341 C.3     1  UNL1        0.0860
     10 N          26.3521   35.4802   -0.3093 N.4     1  UNL1        0.2556
     11 C          27.7585   35.8811    0.0242 C.3     1  UNL1        0.1293
     12 C          28.7788   36.0156   -1.0671 C.ar    1  UNL1        0.0288
     13 C          28.3927   35.7492   -2.4919 C.ar    1  UNL1       -0.0149
     14 C          26.9862   35.3482   -2.8253 C.3     1  UNL1        0.0836
     15 C          29.4130   35.8836   -3.5831 C.ar    1  UNL1       -0.0042
     16 C          30.8194   36.2845   -3.2496 C.ar    1  UNL1       -0.0003
     17 C          31.2055   36.5510   -1.8249 C.ar    1  UNL1       -0.0001
     18 C          30.1852   36.4165   -0.7336 C.ar    1  UNL1        0.0011
     19 H          25.6582   35.3888    0.4327 H       1  UNL1        0.2037
     20 H          26.6146   35.6614    0.6595 H       1  UNL1        0.2037
     21 C          22.6537   33.0476   -2.0265 C.3     1  UNL1        0.0487
     22 F          21.0282   30.0084    1.8620 F       1  UNL1       -0.2041
     23 C          20.8457   31.2201    0.9969 C.ar    1  UNL1        0.1421
     24 C          21.8409   31.5280   -0.0822 C.ar    1  UNL1        0.0256
     25 C          21.6584   32.7397   -0.9473 C.ar    1  UNL1       -0.0160
     26 C          20.4805   33.6436   -0.7332 C.ar    1  UNL1        0.0256
     27 C          19.4853   33.3356    0.3459 C.ar    1  UNL1        0.1421
     28 F          18.3074   34.2394    0.5600 F       1  UNL1       -0.2041
     29 C          19.6678   32.1239    1.2110 C.ar    1  UNL1        0.0592
     30 C          26.5592   30.4968   -0.8507 C.3     1  UNL1        0.1521
     31 N          26.1035   29.0953   -0.5713 N.am    1  UNL1       -0.2716
     32 C          26.4366   27.8809   -1.3864 C.3     1  UNL1        0.0960
     33 C          25.7737   26.6972   -0.7467 C.3     1  UNL1        0.0484
     34 C          25.0307   27.1800    0.4637 C.3     1  UNL1        0.1274
     35 C          25.2346   28.6621    0.5720 C.2     1  UNL1        0.2418
     36 O          24.6689   29.5544    1.6369 O.2     1  UNL1       -0.2732
     37 N          24.2093   27.3608    1.7057 N.am    1  UNL1       -0.2999
     38 C          22.7760   26.9193    1.7278 C.2     1  UNL1        0.2232
     39 O          22.1639   26.2969    0.5080 O.2     1  UNL1       -0.2751
     40 C          21.9546   27.1002    2.9699 C.3     1  UNL1        0.0946
     41 H          24.6110   27.7693    2.5064 H       1  UNL1        0.1498
     42 C          24.6552   25.7357    0.6150 C.3     1  UNL1        0.0269
     43 C          25.6513   24.7546    1.1583 C.3     1  UNL1        0.0021
     44 C          25.7959   23.4031    0.5237 C.3     1  UNL1        0.0001
     45 C          26.5028   25.1250    2.3364 C.3     1  UNL1        0.0001
     46 C          27.9001   30.9606   -0.3638 C.3     1  UNL1        0.0339
     47 C          28.4253   32.3031   -0.7784 C.3     1  UNL1        0.0286
     48 C          29.4375   32.4047   -1.8806 C.ar    1  UNL1       -0.0221
     49 C          30.8652   32.7342   -1.5598 C.ar    1  UNL1       -0.0043
     50 C          31.8774   32.8359   -2.6621 C.ar    1  UNL1       -0.0003
     51 C          31.4619   32.6080   -4.0853 C.ar    1  UNL1       -0.0000
     52 C          30.0341   32.2785   -4.4062 C.ar    1  UNL1       -0.0003
     53 C          29.0219   32.1769   -3.3038 C.ar    1  UNL1       -0.0043
@<TRIPOS>UNITY_ATOM_ATTR
10 1
charge 1
@<TRIPOS>BOND
     1    22    23    1
     2    23    24   ar
     3    24    25   ar
     4    25    26   ar
     5    26    27   ar
     6    27    28    1
     7    27    29   ar
     8    25    21    1
     9     5    21    1
    10     5     1    1
    11     1     2   am
    12     2     3    2
    13     2    30    1
    14    30    31    1
    15    31    32    1
    16    32    33    1
    17    33    34    1
    18    34    37    1
    19    37    38   am
    20    38    39    2
    21    38    40    1
    22    34    42    1
    23    42    43    1
    24    43    44    1
    25    43    45    1
    26    34    35    1
    27    35    36    2
    28    30    46    1
    29    46    47    1
    30    47    48    1
    31    48    49   ar
    32    49    50   ar
    33    50    51   ar
    34    51    52   ar
    35    52    53   ar
    36     5     6    1
    37     6     7    1
    38     6     9    1
    39     9    10    1
    40    10    11    1
    41    11    12    1
    42    12    13   ar
    43    13    14    1
    44    13    15   ar
    45    15    16   ar
    46    16    17   ar
    47    17    18   ar
    48    29    23   ar
    49    35    31   am
    50    53    48   ar
    51     9    14    1
    52    18    12   ar
    53     1     4    1
    54    37    41    1
    55     7     8    1
    56    10    19    1
    57    10    20    1
@<TRIPOS>MOLECULE
*****
 53 57 0 0 0
SMALL
GASTEIGER

@<TRIPOS>ATOM
      1 N          25.8309   32.5513   -2.7915 N.am    1  UNL1       -0.3017
      2 C          26.4083   33.2088   -1.5732 C.2     1  UNL1        0.2406
      3 O          25.6268   34.2649   -0.8493 O.2     1  UNL1       -0.2733
      4 H          26.3438   31.8582   -3.2666 H       1  UNL1        0.1495
      5 C          24.4720   32.9498   -3.2859 C.3     1  UNL1        0.1084
      6 C          23.2490   32.5735   -2.5031 C.3     1  UNL1        0.1783
      7 O          21.9276   33.2052   -2.8269 O.3     1  UNL1       -0.3777
      8 H          21.8639   33.8570   -3.5425 H       1  UNL1        0.2106
      9 C          23.3474   31.5656   -1.3965 C.3     1  UNL1        0.0860
     10 N          23.3628   32.0203    0.0328 N.4     1  UNL1        0.2556
     11 C          23.4612   31.0125    1.1394 C.3     1  UNL1        0.1293
     12 C          23.5443   29.5499    0.8166 C.ar    1  UNL1        0.0288
     13 C          23.5289   29.0952   -0.6127 C.ar    1  UNL1       -0.0149
     14 C          23.4305   30.1032   -1.7193 C.3     1  UNL1        0.0836
     15 C          23.6120   27.6328   -0.9355 C.ar    1  UNL1       -0.0042
     16 C          23.7104   26.6250    0.1711 C.ar    1  UNL1       -0.0003
     17 C          23.7258   27.0796    1.6004 C.ar    1  UNL1       -0.0001
     18 C          23.6427   28.5421    1.9232 C.ar    1  UNL1        0.0011
     19 H          23.3063   33.0148    0.2523 H       1  UNL1        0.2037
     20 H          23.3733   32.3294    1.0048 H       1  UNL1        0.2037
     21 C          24.3360   33.7245   -4.5631 C.3     1  UNL1        0.0487
     22 F          24.2755   29.3249   -7.3270 F       1  UNL1       -0.2041
     23 C          24.0472   30.8045   -7.2352 C.ar    1  UNL1        0.1421
     24 C          24.3058   31.5247   -5.9451 C.ar    1  UNL1        0.0256
     25 C          24.0774   33.0043   -5.8532 C.ar    1  UNL1       -0.0160
     26 C          23.5904   33.7639   -7.0516 C.ar    1  UNL1        0.0256
     27 C          23.3318   33.0437   -8.3418 C.ar    1  UNL1        0.1421
     28 F          22.8449   33.8032   -9.5401 F       1  UNL1       -0.2041
     29 C          23.5602   31.5640   -8.4335 C.ar    1  UNL1        0.0592
     30 C          27.7673   32.8103   -1.0788 C.3     1  UNL1        0.1521
     31 N          28.8293   33.8514   -0.8835 N.am    1  UNL1       -0.2716
     32 C          28.6753   35.1367   -0.1257 C.3     1  UNL1        0.0960
     33 C          29.9827   35.8696   -0.1855 C.3     1  UNL1        0.0484
     34 C          30.9447   35.0372   -0.9803 C.3     1  UNL1        0.1274
     35 C          30.2319   33.7899   -1.4116 C.2     1  UNL1        0.2418
     36 O          30.8187   32.6765   -2.2278 O.2     1  UNL1       -0.2732
     37 N          32.1066   34.4394   -1.7170 N.am    1  UNL1       -0.2999
     38 C          32.4582   34.9323   -3.0894 C.2     1  UNL1        0.2232
     39 O          31.6480   36.0228   -3.7251 O.2     1  UNL1       -0.2751
     40 C          33.6201   34.3345   -3.8261 C.3     1  UNL1        0.0946
     41 H          32.6384   33.7237   -1.2998 H       1  UNL1        0.1498
     42 C          31.9004   36.1596   -0.7030 C.3     1  UNL1        0.0269
     43 C          32.3308   36.4477    0.7048 C.3     1  UNL1        0.0021
     44 C          32.5714   35.3180    1.6618 C.3     1  UNL1        0.0001
     45 C          32.5206   37.8658    1.1555 C.3     1  UNL1        0.0001
     46 C          28.0641   31.3707   -0.7797 C.3     1  UNL1        0.0339
     47 C          26.9897   30.3355   -0.9345 C.3     1  UNL1        0.0286
     48 C          27.1196   29.0105   -0.2435 C.ar    1  UNL1       -0.0221
     49 C          27.2214   28.9513    1.2518 C.ar    1  UNL1       -0.0043
     50 C          27.3513   27.6263    1.9428 C.ar    1  UNL1       -0.0003
     51 C          27.3795   26.3605    1.1384 C.ar    1  UNL1       -0.0000
     52 C          27.2777   26.4197   -0.3570 C.ar    1  UNL1       -0.0003
     53 C          27.1478   27.7448   -1.0479 C.ar    1  UNL1       -0.0043
@<TRIPOS>UNITY_ATOM_ATTR
10 1
charge 1
@<TRIPOS>BOND
     1    22    23    1
     2    23    24   ar
     3    24    25   ar
     4    25    26   ar
     5    26    27   ar
     6    27    28    1
     7    27    29   ar
     8    25    21    1
     9     5    21    1
    10     5     1    1
    11     1     2   am
    12     2     3    2
    13     2    30    1
    14    30    31    1
    15    31    32    1
    16    32    33    1
    17    33    34    1
    18    34    37    1
    19    37    38   am
    20    38    39    2
    21    38    40    1
    22    34    42    1
    23    42    43    1
    24    43    44    1
    25    43    45    1
    26    34    35    1
    27    35    36    2
    28    30    46    1
    29    46    47    1
    30    47    48    1
    31    48    49   ar
    32    49    50   ar
    33    50    51   ar
    34    51    52   ar
    35    52    53   ar
    36     5     6    1
    37     6     7    1
    38     6     9    1
    39     9    10    1
    40    10    11    1
    41    11    12    1
    42    12    13   ar
    43    13    14    1
    44    13    15   ar
    45    15    16   ar
    46    16    17   ar
    47    17    18   ar
    48    29    23   ar
    49    35    31   am
    50    53    48   ar
    51     9    14    1
    52    18    12   ar
    53     1     4    1
    54    37    41    1
    55     7     8    1
    56    10    19    1
    57    10    20    1
@<TRIPOS>MOLECULE
*****
 53 57 0 0 0
SMALL
GASTEIGER

@<TRIPOS>ATOM
      1 N          24.1508   32.7915   -2.2576 N.am    1  UNL1       -0.3017
      2 C          25.5443   32.3650   -1.9023 C.2     1  UNL1        0.2406
      3 O          26.4654   33.3199   -1.2023 O.2     1  UNL1       -0.2733
      4 H          23.5463   32.1648   -2.7170 H       1  UNL1        0.1495
      5 C          23.6783   34.1728   -1.9129 C.3     1  UNL1        0.1084
      6 C          23.7656   35.2711   -2.9307 C.3     1  UNL1        0.1783
      7 O          23.2307   36.6352   -2.6099 O.3     1  UNL1       -0.3777
      8 H          22.8283   36.8071   -1.7442 H       1  UNL1        0.2106
      9 C          24.3878   35.0053   -4.2695 C.3     1  UNL1        0.0860
     10 N          25.8705   35.1457   -4.4486 N.4     1  UNL1        0.2556
     11 C          26.4927   34.8799   -5.7873 C.3     1  UNL1        0.1293
     12 C          25.6324   34.4737   -6.9470 C.ar    1  UNL1        0.0288
     13 C          24.1497   34.3333   -6.7679 C.ar    1  UNL1       -0.0149
     14 C          23.5275   34.5991   -5.4291 C.3     1  UNL1        0.0836
     15 C          23.2893   33.9271   -7.9275 C.ar    1  UNL1       -0.0042
     16 C          23.9116   33.6613   -9.2662 C.ar    1  UNL1       -0.0003
     17 C          25.3942   33.8017   -9.4452 C.ar    1  UNL1       -0.0001
     18 C          26.2546   34.2079   -8.2856 C.ar    1  UNL1        0.0011
     19 H          26.4555   35.4219   -3.6600 H       1  UNL1        0.2037
     20 H          26.8787   35.2411   -4.5704 H       1  UNL1        0.2037
     21 C          23.1185   34.4557   -0.5504 C.3     1  UNL1        0.0487
     22 F          18.0284   33.9223    0.3476 F       1  UNL1       -0.2041
     23 C          19.4244   33.3784    0.4205 C.ar    1  UNL1        0.1421
     24 C          20.5734   34.1890   -0.1014 C.ar    1  UNL1        0.0256
     25 C          21.9694   33.6450   -0.0285 C.ar    1  UNL1       -0.0160
     26 C          22.2163   32.2903    0.5664 C.ar    1  UNL1        0.0256
     27 C          21.0672   31.4796    1.0883 C.ar    1  UNL1        0.1421
     28 F          21.3141   30.1250    1.6832 F       1  UNL1       -0.2041
     29 C          19.6712   32.0237    1.0154 C.ar    1  UNL1        0.0592
     30 C          26.0168   30.9838   -2.2470 C.3     1  UNL1        0.1521
     31 N          25.3691   29.7892   -1.6118 N.am    1  UNL1       -0.2716
     32 C          23.9286   29.3924   -1.7449 C.3     1  UNL1        0.0960
     33 C          23.7173   28.1397   -0.9473 C.3     1  UNL1        0.0484
     34 C          25.0273   27.7623   -0.3214 C.3     1  UNL1        0.1274
     35 C          26.0480   28.7818   -0.7321 C.2     1  UNL1        0.2418
     36 O          27.4939   28.7920   -0.3330 O.2     1  UNL1       -0.2732
     37 N          26.1738   27.1448    0.4230 N.am    1  UNL1       -0.2999
     38 C          26.8913   25.9604   -0.1535 C.2     1  UNL1        0.2232
     39 O          26.4624   25.3934   -1.4743 O.2     1  UNL1       -0.2751
     40 C          28.0380   25.3429    0.5909 C.3     1  UNL1        0.0946
     41 H          26.4554   27.5169    1.2899 H       1  UNL1        0.1498
     42 C          24.2462   26.6137    0.2449 C.3     1  UNL1        0.0269
     43 C          23.2415   26.8536    1.3326 C.3     1  UNL1        0.0021
     44 C          21.9581   26.0775    1.3528 C.3     1  UNL1        0.0001
     45 C          23.5204   27.8698    2.4003 C.3     1  UNL1        0.0001
     46 C          27.1371   30.7970   -3.2269 C.3     1  UNL1        0.0339
     47 C          27.1095   31.5155   -4.5434 C.3     1  UNL1        0.0286
     48 C          26.1289   31.1049   -5.6015 C.ar    1  UNL1       -0.0221
     49 C          24.6663   31.0248   -5.2782 C.ar    1  UNL1       -0.0043
     50 C          23.6857   30.6142   -6.3363 C.ar    1  UNL1       -0.0003
     51 C          24.1675   30.2837   -7.7179 C.ar    1  UNL1       -0.0000
     52 C          25.6301   30.3638   -8.0412 C.ar    1  UNL1       -0.0003
     53 C          26.6107   30.7744   -6.9830 C.ar    1  UNL1       -0.0043
@<TRIPOS>UNITY_ATOM_ATTR
10 1
charge 1
@<TRIPOS>BOND
     1    22    23    1
     2    23    24   ar
     3    24    25   ar
     4    25    26   ar
     5    26    27   ar
     6    27    28    1
     7    27    29   ar
     8    25    21    1
     9     5    21    1
    10     5     1    1
    11     1     2   am
    12     2     3    2
    13     2    30    1
    14    30    31    1
    15    31    32    1
    16    32    33    1
    17    33    34    1
    18    34    37    1
    19    37    38   am
    20    38    39    2
    21    38    40    1
    22    34    42    1
    23    42    43    1
    24    43    44    1
    25    43    45    1
    26    34    35    1
    27    35    36    2
    28    30    46    1
    29    46    47    1
    30    47    48    1
    31    48    49   ar
    32    49    50   ar
    33    50    51   ar
    34    51    52   ar
    35    52    53   ar
    36     5     6    1
    37     6     7    1
    38     6     9    1
    39     9    10    1
    40    10    11    1
    41    11    12    1
    42    12    13   ar
    43    13    14    1
    44    13    15   ar
    45    15    16   ar
    46    16    17   ar
    47    17    18   ar
    48    29    23   ar
    49    35    31   am
    50    53    48   ar
    51     9    14    1
    52    18    12   ar
    53     1     4    1
    54    37    41    1
    55     7     8    1
    56    10    19    1
    57    10    20    1
@<TRIPOS>MOLECULE
*****
 36 38 0 0 0
SMALL
GASTEIGER

@<TRIPOS>ATOM
      1 N          22.0658   29.9846    1.7724 N.4     1  UNL1        0.2554
      2 H          21.0766   29.7707    1.8992 H       1  UNL1        0.2037
      3 H          21.3681   30.7224    1.6763 H       1  UNL1        0.2037
      4 S          22.9896   25.0550    1.9406 S.2     1  UNL1       -0.0551
      5 C          23.6975   26.3752    2.0166 C.ar    1  UNL1        0.1694
      6 O          25.1440   26.7296    2.1962 O.3     1  UNL1       -0.4767
      7 C          25.5643   28.1690    2.2346 C.3     1  UNL1        0.1398
      8 C          24.5383   29.2540    2.0933 C.3     1  UNL1        0.0998
      9 C          23.0918   28.8996    1.9137 C.3     1  UNL1        0.0824
     10 C          22.6715   27.4602    1.8753 C.ar    1  UNL1        0.0671
     11 C          21.3294   26.8106    1.7120 C.ar    1  UNL1        0.0070
     12 C          21.5260   25.3240    1.7523 C.ar    1  UNL1        0.0100
     13 C          26.4476   29.3774    2.3340 C.3     1  UNL1        0.0438
     14 C          26.8971   27.5036    2.4104 C.3     1  UNL1        0.0438
     15 C          20.4482   24.2884    1.6264 C.3     1  UNL1        0.0330
     16 C          19.0239   24.7098    1.4171 C.3     1  UNL1        0.0046
     17 C          18.8297   24.7913    2.9022 C.3     1  UNL1        0.0004
     18 C          19.2182   24.6284   -0.0680 C.3     1  UNL1        0.0004
     19 C          17.5997   25.1313    1.2077 C.3     1  UNL1        0.0004
     20 C          22.4945   31.3842    1.4446 C.3     1  UNL1        0.1337
     21 C          22.1468   31.9828    0.1138 C.3     1  UNL1        0.1839
     22 O          20.7268   31.9640   -0.3691 O.3     1  UNL1       -0.3775
     23 H          20.5020   32.3511   -1.2296 H       1  UNL1        0.2106
     24 C          23.2191   32.6001   -0.7340 C.3     1  UNL1        0.1086
     25 N          23.7335   33.9719   -0.4116 N.am    1  UNL1       -0.3030
     26 C          22.8026   35.1479   -0.4408 C.2     1  UNL1        0.2230
     27 O          21.3577   34.9520   -0.7924 O.2     1  UNL1       -0.2751
     28 C          23.3169   36.5196   -0.1184 C.3     1  UNL1        0.0946
     29 H          24.6819   34.1004   -0.1808 H       1  UNL1        0.1495
     30 C          23.7773   31.8458   -1.9043 C.3     1  UNL1        0.0486
     31 C          24.4987   30.5490   -1.6856 C.ar    1  UNL1       -0.0204
     32 C          23.7338   29.2586   -1.6705 C.ar    1  UNL1       -0.0042
     33 C          24.4552   27.9618   -1.4519 C.ar    1  UNL1       -0.0003
     34 C          25.9414   27.9552   -1.2484 C.ar    1  UNL1       -0.0000
     35 C          26.7061   29.2455   -1.2635 C.ar    1  UNL1       -0.0003
     36 C          25.9847   30.5424   -1.4821 C.ar    1  UNL1       -0.0042
@<TRIPOS>UNITY_ATOM_ATTR
1 1
charge 1
@<TRIPOS>BOND
     1     4     5   ar
     2     5     6    1
     3     6     7    1
     4     7     8    1
     5     8     9    1
     6     9     1    1
     7     1    20    1
     8    20    21    1
     9    21    22    1
    10    21    24    1
    11    24    25    1
    12    25    26   am
    13    26    27    2
    14    26    28    1
    15    24    30    1
    16    30    31    1
    17    31    32   ar
    18    32    33   ar
    19    33    34   ar
    20    34    35   ar
    21    35    36   ar
    22     9    10    1
    23    10    11   ar
    24    11    12   ar
    25    12    15    1
    26    15    16    1
    27    16    17    1
    28    16    18    1
    29    16    19    1
    30     7    13    1
    31     7    14    1
    32    12     4   ar
    33    10     5   ar
    34    36    31   ar
    35     1     2    1
    36     1     3    1
    37    22    23    1
    38    25    29    1
@<TRIPOS>MOLECULE
*****
 36 38 0 0 0
SMALL
GASTEIGER

@<TRIPOS>ATOM
      1 N          21.6813   25.1489    2.7170 N.4     1  UNL1        0.2554
      2 H          21.4823   25.0652    3.7139 H       1  UNL1        0.2037
      3 H          20.8426   24.6602    3.0304 H       1  UNL1        0.2037
      4 S          23.7163   29.4775    1.1987 S.2     1  UNL1       -0.0551
      5 C          24.0833   28.0464    1.4582 C.ar    1  UNL1        0.1694
      6 O          25.3813   27.3049    1.3343 O.3     1  UNL1       -0.4767
      7 C          25.4458   25.8446    1.6714 C.3     1  UNL1        0.1398
      8 C          24.2126   25.1260    2.1322 C.3     1  UNL1        0.0998
      9 C          22.9146   25.8676    2.2561 C.3     1  UNL1        0.0824
     10 C          22.8500   27.3278    1.9191 C.ar    1  UNL1        0.0671
     11 C          21.7207   28.3147    1.9445 C.ar    1  UNL1        0.0070
     12 C          22.2561   29.6433    1.4993 C.ar    1  UNL1        0.0100
     13 C          26.0065   24.4679    1.8726 C.3     1  UNL1        0.0438
     14 C          26.8739   26.0852    1.2803 C.3     1  UNL1        0.0438
     15 C          21.4694   30.9145    1.3762 C.3     1  UNL1        0.0330
     16 C          22.0551   32.0922    0.6552 C.3     1  UNL1        0.0046
     17 C          22.3507   32.7503    1.9703 C.3     1  UNL1        0.0004
     18 C          21.7595   31.4341   -0.6599 C.3     1  UNL1        0.0004
     19 C          22.6409   33.2699   -0.0658 C.3     1  UNL1        0.0004
     20 C          20.7405   24.5534    1.7119 C.3     1  UNL1        0.1337
     21 C          19.3072   24.3077    2.0798 C.3     1  UNL1        0.1839
     22 O          18.7887   24.7526    3.4152 O.3     1  UNL1       -0.3775
     23 H          17.8619   24.5937    3.6531 H       1  UNL1        0.2106
     24 C          18.3924   23.6170    1.1123 C.3     1  UNL1        0.1086
     25 N          18.2324   24.1509   -0.2804 N.am    1  UNL1       -0.3030
     26 C          18.5420   23.2762   -1.4590 C.2     1  UNL1        0.2230
     27 O          19.0114   21.8678   -1.2450 O.2     1  UNL1       -0.2751
     28 C          18.3821   23.8101   -2.8517 C.3     1  UNL1        0.0946
     29 H          17.9243   25.0753   -0.4208 H       1  UNL1        0.1495
     30 C          17.6375   22.3925    1.5374 C.3     1  UNL1        0.0486
     31 C          18.3432   21.2961    2.2789 C.ar    1  UNL1       -0.0204
     32 C          19.6004   20.7002    1.7183 C.ar    1  UNL1       -0.0042
     33 C          20.3062   19.6038    2.4598 C.ar    1  UNL1       -0.0003
     34 C          19.7547   19.1033    3.7619 C.ar    1  UNL1       -0.0000
     35 C          18.4975   19.6992    4.3225 C.ar    1  UNL1       -0.0003
     36 C          17.7918   20.7957    3.5810 C.ar    1  UNL1       -0.0042
@<TRIPOS>UNITY_ATOM_ATTR
1 1
charge 1
@<TRIPOS>BOND
     1     4     5   ar
     2     5     6    1
     3     6     7    1
     4     7     8    1
     5     8     9    1
     6     9     1    1
     7     1    20    1
     8    20    21    1
     9    21    22    1
    10    21    24    1
    11    24    25    1
    12    25    26   am
    13    26    27    2
    14    26    28    1
    15    24    30    1
    16    30    31    1
    17    31    32   ar
    18    32    33   ar
    19    33    34   ar
    20    34    35   ar
    21    35    36   ar
    22     9    10    1
    23    10    11   ar
    24    11    12   ar
    25    12    15    1
    26    15    16    1
    27    16    17    1
    28    16    18    1
    29    16    19    1
    30     7    13    1
    31     7    14    1
    32    12     4   ar
    33    10     5   ar
    34    36    31   ar
    35     1     2    1
    36     1     3    1
    37    22    23    1
    38    25    29    1
@<TRIPOS>MOLECULE
*****
 36 38 0 0 0
SMALL
GASTEIGER

@<TRIPOS>ATOM
      1 N          25.1694   23.7159    1.4238 N.4     1  UNL1        0.2554
      2 H          25.3702   23.1692    2.2611 H       1  UNL1        0.2037
      3 H          24.7258   23.9583    2.3097 H       1  UNL1        0.2037
      4 S          25.3537   20.5567   -2.4709 S.2     1  UNL1       -0.0551
      5 C          26.0148   21.7964   -1.9453 C.ar    1  UNL1        0.1694
      6 O          27.1265   22.6467   -2.4848 O.3     1  UNL1       -0.4767
      7 C          27.5858   23.8534   -1.7213 C.3     1  UNL1        0.1398
      8 C          26.9335   24.2098   -0.4185 C.3     1  UNL1        0.0998
      9 C          25.8217   23.3595    0.1209 C.3     1  UNL1        0.0824
     10 C          25.3624   22.1528   -0.6425 C.ar    1  UNL1        0.0671
     11 C          24.2981   21.1334   -0.3629 C.ar    1  UNL1        0.0070
     12 C          24.2928   20.1470   -1.4929 C.ar    1  UNL1        0.0100
     13 C          28.3659   25.0850   -1.3677 C.3     1  UNL1        0.0438
     14 C          28.5091   23.9247   -2.9014 C.3     1  UNL1        0.0438
     15 C          23.3857   18.9593   -1.6222 C.3     1  UNL1        0.0330
     16 C          22.7233   18.3854   -0.4049 C.3     1  UNL1        0.0046
     17 C          21.4607   19.1199   -0.7458 C.3     1  UNL1        0.0004
     18 C          23.9860   17.6510   -0.0641 C.3     1  UNL1        0.0004
     19 C          22.0610   17.8115    0.8124 C.3     1  UNL1        0.0004
     20 C          24.2216   24.8763    1.4952 C.3     1  UNL1        0.1337
     21 C          22.7532   24.6348    1.6842 C.3     1  UNL1        0.1839
     22 O          22.2437   23.2401    1.8967 O.3     1  UNL1       -0.3775
     23 H          21.2942   23.0840    2.0189 H       1  UNL1        0.2106
     24 C          21.7944   25.7881    1.6608 C.3     1  UNL1        0.1086
     25 N          22.2271   27.1120    1.1038 N.am    1  UNL1       -0.3030
     26 C          22.8746   28.1268    1.9989 C.2     1  UNL1        0.2230
     27 O          23.0893   27.8177    3.4508 O.2     1  UNL1       -0.2751
     28 C          23.3073   29.4506    1.4419 C.3     1  UNL1        0.0946
     29 H          22.0862   27.3149    0.1508 H       1  UNL1        0.1495
     30 C          20.4029   25.6176    2.1944 C.3     1  UNL1        0.0486
     31 C          19.4290   24.7291    1.4789 C.ar    1  UNL1       -0.0204
     32 C          19.3979   24.7045   -0.0206 C.ar    1  UNL1       -0.0042
     33 C          18.4240   23.8160   -0.7361 C.ar    1  UNL1       -0.0003
     34 C          17.4811   22.9520    0.0478 C.ar    1  UNL1       -0.0000
     35 C          17.5122   22.9765    1.5473 C.ar    1  UNL1       -0.0003
     36 C          18.4862   23.8652    2.2628 C.ar    1  UNL1       -0.0042
@<TRIPOS>UNITY_ATOM_ATTR
1 1
charge 1
@<TRIPOS>BOND
     1     4     5   ar
     2     5     6    1
     3     6     7    1
     4     7     8    1
     5     8     9    1
     6     9     1    1
     7     1    20    1
     8    20    21    1
     9    21    22    1
    10    21    24    1
    11    24    25    1
    12    25    26   am
    13    26    27    2
    14    26    28    1
    15    24    30    1
    16    30    31    1
    17    31    32   ar
    18    32    33   ar
    19    33    34   ar
    20    34    35   ar
    21    35    36   ar
    22     9    10    1
    23    10    11   ar
    24    11    12   ar
    25    12    15    1
    26    15    16    1
    27    16    17    1
    28    16    18    1
    29    16    19    1
    30     7    13    1
    31     7    14    1
    32    12     4   ar
    33    10     5   ar
    34    36    31   ar
    35     1     2    1
    36     1     3    1
    37    22    23    1
    38    25    29    1
@<TRIPOS>MOLECULE
*****
 36 38 0 0 0
SMALL
GASTEIGER

@<TRIPOS>ATOM
      1 N          21.6699   29.3118    2.5073 N.4     1  UNL1        0.2554
      2 H          22.0208   29.5081    3.4447 H       1  UNL1        0.2037
      3 H          21.4327   28.6910    3.2810 H       1  UNL1        0.2037
      4 S          25.1271   30.7487   -0.8344 S.2     1  UNL1       -0.0551
      5 C          23.7228   31.0567   -0.4067 C.ar    1  UNL1        0.1694
      6 O          22.7166   32.0506   -0.9064 O.3     1  UNL1       -0.4767
      7 C          21.3615   32.1315   -0.2682 C.3     1  UNL1        0.1398
      8 C          21.0127   31.2186    0.8696 C.3     1  UNL1        0.0998
      9 C          22.0188   30.2247    1.3694 C.3     1  UNL1        0.0824
     10 C          23.3739   30.1438    0.7312 C.ar    1  UNL1        0.0671
     11 C          24.5626   29.2714    1.0068 C.ar    1  UNL1        0.0070
     12 C          25.6462   29.6453    0.0393 C.ar    1  UNL1        0.0100
     13 C          19.9583   32.5842    0.0081 C.3     1  UNL1        0.0438
     14 C          21.2231   33.2017   -1.3102 C.3     1  UNL1        0.0438
     15 C          27.0094   29.0247   -0.0407 C.3     1  UNL1        0.0330
     16 C          27.2599   27.6822    0.5797 C.3     1  UNL1        0.0046
     17 C          26.9873   27.0219   -0.7392 C.3     1  UNL1        0.0004
     18 C          27.5325   28.3425    1.8987 C.3     1  UNL1        0.0004
     19 C          27.5103   26.3397    1.2001 C.3     1  UNL1        0.0004
     20 C          20.8051   28.1101    2.2666 C.3     1  UNL1        0.1337
     21 C          21.2609   26.7550    2.7206 C.3     1  UNL1        0.1839
     22 O          21.5729   26.5146    4.1680 O.3     1  UNL1       -0.3775
     23 H          21.8677   25.6383    4.4615 H       1  UNL1        0.2106
     24 C          21.4046   25.6404    1.7272 C.3     1  UNL1        0.1086
     25 N          22.5429   24.6707    1.8474 N.am    1  UNL1       -0.3030
     26 C          23.7819   24.8627    1.0239 C.2     1  UNL1        0.2230
     27 O          23.8826   26.0243    0.0803 O.2     1  UNL1       -0.2751
     28 C          24.9200   23.8931    1.1441 C.3     1  UNL1        0.0946
     29 H          22.4767   23.9083    2.4668 H       1  UNL1        0.1495
     30 C          20.4103   25.4954    0.6135 C.3     1  UNL1        0.0486
     31 C          19.3541   24.4326    0.6848 C.ar    1  UNL1       -0.0204
     32 C          18.7586   23.8814   -0.5769 C.ar    1  UNL1       -0.0042
     33 C          17.7025   22.8186   -0.5057 C.ar    1  UNL1       -0.0003
     34 C          17.2418   22.3071    0.8271 C.ar    1  UNL1       -0.0000
     35 C          17.8373   22.8583    2.0886 C.ar    1  UNL1       -0.0003
     36 C          18.8935   23.9212    2.0174 C.ar    1  UNL1       -0.0042
@<TRIPOS>UNITY_ATOM_ATTR
1 1
charge 1
@<TRIPOS>BOND
     1     4     5   ar
     2     5     6    1
     3     6     7    1
     4     7     8    1
     5     8     9    1
     6     9     1    1
     7     1    20    1
     8    20    21    1
     9    21    22    1
    10    21    24    1
    11    24    25    1
    12    25    26   am
    13    26    27    2
    14    26    28    1
    15    24    30    1
    16    30    31    1
    17    31    32   ar
    18    32    33   ar
    19    33    34   ar
    20    34    35   ar
    21    35    36   ar
    22     9    10    1
    23    10    11   ar
    24    11    12   ar
    25    12    15    1
    26    15    16    1
    27    16    17    1
    28    16    18    1
    29    16    19    1
    30     7    13    1
    31     7    14    1
    32    12     4   ar
    33    10     5   ar
    34    36    31   ar
    35     1     2    1
    36     1     3    1
    37    22    23    1
    38    25    29    1
@<TRIPOS>MOLECULE
*****
 36 38 0 0 0
SMALL
GASTEIGER

@<TRIPOS>ATOM
      1 N          22.3054   29.3301    2.1538 N.4     1  UNL1        0.2554
      2 H          22.8639   29.3861    3.0054 H       1  UNL1        0.2037
      3 H          22.3282   28.5424    2.8014 H       1  UNL1        0.2037
      4 S          24.7532   32.0049   -1.3157 S.2     1  UNL1       -0.0551
      5 C          23.4330   31.9501   -0.6057 C.ar    1  UNL1        0.1694
      6 O          22.2046   32.8053   -0.7033 O.3     1  UNL1       -0.4767
      7 C          21.0098   32.5021    0.1514 C.3     1  UNL1        0.1398
      8 C          21.0434   31.3437    1.1037 C.3     1  UNL1        0.0998
      9 C          22.2718   30.4885    1.2014 C.3     1  UNL1        0.0824
     10 C          23.4666   30.7917    0.3467 C.ar    1  UNL1        0.0671
     11 C          24.8076   30.1306    0.2253 C.ar    1  UNL1        0.0070
     12 C          25.6027   30.8804   -0.8021 C.ar    1  UNL1        0.0100
     13 C          19.6377   32.6149    0.7472 C.3     1  UNL1        0.0438
     14 C          20.4997   33.6997   -0.5941 C.3     1  UNL1        0.0438
     15 C          27.0018   30.5616   -1.2392 C.3     1  UNL1        0.0330
     16 C          27.4015   30.7518   -2.6724 C.3     1  UNL1        0.0046
     17 C          28.2105   31.9547   -2.2872 C.3     1  UNL1        0.0004
     18 C          26.5924   29.5488   -3.0576 C.3     1  UNL1        0.0004
     19 C          27.8012   30.9419   -4.1056 C.3     1  UNL1        0.0004
     20 C          21.5176   28.0894    1.8537 C.3     1  UNL1        0.1337
     21 C          21.7030   26.8615    2.6951 C.3     1  UNL1        0.1839
     22 O          21.7499   26.9766    4.1900 O.3     1  UNL1       -0.3775
     23 H          21.8698   26.1825    4.7340 H       1  UNL1        0.2106
     24 C          21.8415   25.5185    2.0416 C.3     1  UNL1        0.1086
     25 N          20.6674   24.9000    1.3422 N.am    1  UNL1       -0.3030
     26 C          19.3550   24.7652    2.0560 C.2     1  UNL1        0.2230
     27 O          19.2168   25.2489    3.4691 O.2     1  UNL1       -0.2751
     28 C          18.1810   24.1468    1.3566 C.3     1  UNL1        0.0946
     29 H          20.7582   24.5826    0.4147 H       1  UNL1        0.1495
     30 C          23.1541   24.7939    2.0875 C.3     1  UNL1        0.0486
     31 C          24.3612   25.3858    1.4223 C.ar    1  UNL1       -0.0204
     32 C          24.2174   26.1155    0.1196 C.ar    1  UNL1       -0.0042
     33 C          25.4245   26.7074   -0.5456 C.ar    1  UNL1       -0.0003
     34 C          26.7754   26.5696    0.0917 C.ar    1  UNL1       -0.0000
     35 C          26.9192   25.8398    1.3943 C.ar    1  UNL1       -0.0003
     36 C          25.7120   25.2479    2.0596 C.ar    1  UNL1       -0.0042
@<TRIPOS>UNITY_ATOM_ATTR
1 1
charge 1
@<TRIPOS>BOND
     1     4     5   ar
     2     5     6    1
     3     6     7    1
     4     7     8    1
     5     8     9    1
     6     9     1    1
     7     1    20    1
     8    20    21    1
     9    21    22    1
    10    21    24    1
    11    24    25    1
    12    25    26   am
    13    26    27    2
    14    26    28    1
    15    24    30    1
    16    30    31    1
    17    31    32   ar
    18    32    33   ar
    19    33    34   ar
    20    34    35   ar
    21    35    36   ar
    22     9    10    1
    23    10    11   ar
    24    11    12   ar
    25    12    15    1
    26    15    16    1
    27    16    17    1
    28    16    18    1
    29    16    19    1
    30     7    13    1
    31     7    14    1
    32    12     4   ar
    33    10     5   ar
    34    36    31   ar
    35     1     2    1
    36     1     3    1
    37    22    23    1
    38    25    29    1
@<TRIPOS>MOLECULE
*****
 36 38 0 0 0
SMALL
GASTEIGER

@<TRIPOS>ATOM
      1 N          23.8815   20.8355    0.3782 N.4     1  UNL1        0.2554
      2 H          24.1628   20.4675    1.2870 H       1  UNL1        0.2037
      3 H          23.1946   20.3793    0.9785 H       1  UNL1        0.2037
      4 S          27.0025   24.7125   -0.2636 S.2     1  UNL1       -0.0551
      5 C          26.5422   23.4622   -0.9528 C.ar    1  UNL1        0.1694
      6 O          26.9124   22.8480   -2.2702 O.3     1  UNL1       -0.4767
      7 C          26.2724   21.5628   -2.7047 C.3     1  UNL1        0.1398
      8 C          25.2621   20.8921   -1.8220 C.3     1  UNL1        0.0998
      9 C          24.8918   21.5063   -0.5046 C.3     1  UNL1        0.0824
     10 C          25.5319   22.7914   -0.0700 C.ar    1  UNL1        0.0671
     11 C          25.3678   23.6270    1.1648 C.ar    1  UNL1        0.0070
     12 C          26.2767   24.8143    1.0452 C.ar    1  UNL1        0.0100
     13 C          25.9436   20.3663   -3.5477 C.3     1  UNL1        0.0438
     14 C          27.1685   21.8182   -3.8803 C.3     1  UNL1        0.0438
     15 C          26.4324   25.9109    2.0567 C.3     1  UNL1        0.0330
     16 C          26.0376   27.3152    1.7073 C.3     1  UNL1        0.0046
     17 C          27.4754   27.7369    1.7777 C.3     1  UNL1        0.0004
     18 C          24.5999   26.8935    1.6369 C.3     1  UNL1        0.0004
     19 C          25.6429   28.7195    1.3579 C.3     1  UNL1        0.0004
     20 C          22.4577   20.7058   -0.0755 C.3     1  UNL1        0.1337
     21 C          21.3718   20.4476    0.9267 C.3     1  UNL1        0.1839
     22 O          21.5228   20.9329    2.3380 O.3     1  UNL1       -0.3775
     23 H          20.8206   20.7659    2.9860 H       1  UNL1        0.2106
     24 C          20.1350   19.7042    0.5175 C.3     1  UNL1        0.1086
     25 N          20.2238   18.2591    0.1250 N.am    1  UNL1       -0.3030
     26 C          20.7579   17.2494    1.0974 C.2     1  UNL1        0.2230
     27 O          21.2030   17.6847    2.4620 O.2     1  UNL1       -0.2751
     28 C          20.8467   15.8044    0.7049 C.3     1  UNL1        0.0946
     29 H          19.9316   17.9734   -0.7706 H       1  UNL1        0.1495
     30 C          18.8092   20.4058    0.5008 C.3     1  UNL1        0.0486
     31 C          18.7529   21.9002    0.3841 C.ar    1  UNL1       -0.0204
     32 C          18.8549   22.5515   -0.9633 C.ar    1  UNL1       -0.0042
     33 C          18.7985   24.0459   -1.0800 C.ar    1  UNL1       -0.0003
     34 C          18.6403   24.8890    0.1505 C.ar    1  UNL1       -0.0000
     35 C          18.5384   24.2376    1.4978 C.ar    1  UNL1       -0.0003
     36 C          18.5948   22.7431    1.6146 C.ar    1  UNL1       -0.0042
@<TRIPOS>UNITY_ATOM_ATTR
1 1
charge 1
@<TRIPOS>BOND
     1     4     5   ar
     2     5     6    1
     3     6     7    1
     4     7     8    1
     5     8     9    1
     6     9     1    1
     7     1    20    1
     8    20    21    1
     9    21    22    1
    10    21    24    1
    11    24    25    1
    12    25    26   am
    13    26    27    2
    14    26    28    1
    15    24    30    1
    16    30    31    1
    17    31    32   ar
    18    32    33   ar
    19    33    34   ar
    20    34    35   ar
    21    35    36   ar
    22     9    10    1
    23    10    11   ar
    24    11    12   ar
    25    12    15    1
    26    15    16    1
    27    16    17    1
    28    16    18    1
    29    16    19    1
    30     7    13    1
    31     7    14    1
    32    12     4   ar
    33    10     5   ar
    34    36    31   ar
    35     1     2    1
    36     1     3    1
    37    22    23    1
    38    25    29    1
@<TRIPOS>MOLECULE
*****
 36 38 0 0 0
SMALL
GASTEIGER

@<TRIPOS>ATOM
      1 N          18.7315   20.7290   -2.5402 N.4     1  UNL1        0.2554
      2 H          19.0863   21.1965   -3.3744 H       1  UNL1        0.2037
      3 H          18.4503   21.6876   -2.7462 H       1  UNL1        0.2037
      4 S          17.5844   15.8510   -2.8103 S.2     1  UNL1       -0.0551
      5 C          18.6649   16.7671   -2.3173 C.ar    1  UNL1        0.1694
      6 O          19.9721   16.4998   -1.6318 O.3     1  UNL1       -0.4767
      7 C          20.8656   17.6423   -1.2491 C.3     1  UNL1        0.1398
      8 C          20.4521   19.0519   -1.5519 C.3     1  UNL1        0.0998
      9 C          19.1450   19.3192   -2.2374 C.3     1  UNL1        0.0824
     10 C          18.2514   18.1769   -2.6201 C.ar    1  UNL1        0.0671
     11 C          16.9152   18.1320   -3.3002 C.ar    1  UNL1        0.0070
     12 C          16.5030   16.6945   -3.4177 C.ar    1  UNL1        0.0100
     13 C          22.0452   18.3846   -0.6943 C.3     1  UNL1        0.0438
     14 C          21.6888   16.4903   -0.7536 C.3     1  UNL1        0.0438
     15 C          15.2324   16.1893   -4.0345 C.3     1  UNL1        0.0330
     16 C          15.2774   15.0780   -5.0409 C.3     1  UNL1        0.0046
     17 C          15.8411   16.0235   -6.0598 C.3     1  UNL1        0.0004
     18 C          14.7136   14.1325   -4.0220 C.3     1  UNL1        0.0004
     19 C          15.3223   13.9666   -6.0473 C.3     1  UNL1        0.0004
     20 C          17.7961   21.4511   -1.6163 C.3     1  UNL1        0.1337
     21 C          18.2450   22.7033   -0.9231 C.3     1  UNL1        0.1839
     22 O          19.0366   23.7333   -1.6731 O.3     1  UNL1       -0.3775
     23 H          19.3268   24.5430   -1.2248 H       1  UNL1        0.2106
     24 C          17.9022   22.9256    0.5202 C.3     1  UNL1        0.1086
     25 N          18.1311   24.2690    1.1472 N.am    1  UNL1       -0.3030
     26 C          19.5277   24.7320    1.4395 C.2     1  UNL1        0.2230
     27 O          20.6951   23.8518    1.1047 O.2     1  UNL1       -0.2751
     28 C          19.7566   26.0753    2.0664 C.3     1  UNL1        0.0946
     29 H          17.3648   24.8467    1.3669 H       1  UNL1        0.1495
     30 C          17.3305   21.8045    1.3365 C.3     1  UNL1        0.0486
     31 C          18.2370   20.9380    2.1595 C.ar    1  UNL1       -0.0204
     32 C          17.8021   20.4757    3.5187 C.ar    1  UNL1       -0.0042
     33 C          18.7086   19.6092    4.3417 C.ar    1  UNL1       -0.0003
     34 C          20.0500   19.2049    3.8056 C.ar    1  UNL1       -0.0000
     35 C          20.4848   19.6672    2.4466 C.ar    1  UNL1       -0.0003
     36 C          19.5783   20.5338    1.6235 C.ar    1  UNL1       -0.0042
@<TRIPOS>UNITY_ATOM_ATTR
1 1
charge 1
@<TRIPOS>BOND
     1     4     5   ar
     2     5     6    1
     3     6     7    1
     4     7     8    1
     5     8     9    1
     6     9     1    1
     7     1    20    1
     8    20    21    1
     9    21    22    1
    10    21    24    1
    11    24    25    1
    12    25    26   am
    13    26    27    2
    14    26    28    1
    15    24    30    1
    16    30    31    1
    17    31    32   ar
    18    32    33   ar
    19    33    34   ar
    20    34    35   ar
    21    35    36   ar
    22     9    10    1
    23    10    11   ar
    24    11    12   ar
    25    12    15    1
    26    15    16    1
    27    16    17    1
    28    16    18    1
    29    16    19    1
    30     7    13    1
    31     7    14    1
    32    12     4   ar
    33    10     5   ar
    34    36    31   ar
    35     1     2    1
    36     1     3    1
    37    22    23    1
    38    25    29    1
@<TRIPOS>MOLECULE
*****
 36 38 0 0 0
SMALL
GASTEIGER

@<TRIPOS>ATOM
      1 N          23.4719   28.3611    3.2965 N.4     1  UNL1        0.2554
      2 H          23.6423   29.1631    3.9032 H       1  UNL1        0.2037
      3 H          22.9107   28.4923    4.1381 H       1  UNL1        0.2037
      4 S          24.3919   29.8023   -1.4216 S.2     1  UNL1       -0.0551
      5 C          24.8686   28.8240   -0.3893 C.ar    1  UNL1        0.1694
      6 O          25.9477   27.7824   -0.4164 O.3     1  UNL1       -0.4767
      7 C          26.2014   26.9337    0.7942 C.3     1  UNL1        0.1398
      8 C          25.3762   27.1266    2.0317 C.3     1  UNL1        0.0998
      9 C          24.2972   28.1682    2.0588 C.3     1  UNL1        0.0824
     10 C          24.0434   29.0169    0.8483 C.ar    1  UNL1        0.0671
     11 C          23.0565   30.1145    0.5810 C.ar    1  UNL1        0.0070
     12 C          23.2719   30.5999   -0.8219 C.ar    1  UNL1        0.0100
     13 C          26.8160   25.8924    1.6819 C.3     1  UNL1        0.0438
     14 C          27.2402   26.3792   -0.1352 C.3     1  UNL1        0.0438
     15 C          22.5024   31.6912   -1.5051 C.3     1  UNL1        0.0330
     16 C          22.0523   32.8919   -0.7268 C.3     1  UNL1        0.0046
     17 C          23.4446   33.4476   -0.7789 C.3     1  UNL1        0.0004
     18 C          20.6600   32.3362   -0.6748 C.3     1  UNL1        0.0004
     19 C          21.6022   34.0926    0.0515 C.3     1  UNL1        0.0004
     20 C          22.3960   27.3746    3.6418 C.3     1  UNL1        0.1337
     21 C          21.0833   27.4122    2.9168 C.3     1  UNL1        0.1839
     22 O          20.3520   28.7119    2.7562 O.3     1  UNL1       -0.3775
     23 H          19.5032   28.7361    2.2874 H       1  UNL1        0.2106
     24 C          20.5020   26.1498    2.3524 C.3     1  UNL1        0.1086
     25 N          21.3226   24.8945    2.3216 N.am    1  UNL1       -0.3030
     26 C          22.4426   24.7546    1.3336 C.2     1  UNL1        0.2230
     27 O          22.7420   25.8701    0.3765 O.2     1  UNL1       -0.2751
     28 C          23.2631   23.4993    1.3028 C.3     1  UNL1        0.0946
     29 H          21.1260   24.1624    2.9498 H       1  UNL1        0.1495
     30 C          19.1001   26.1428    1.8187 C.3     1  UNL1        0.0486
     31 C          18.5735   24.9302    1.1100 C.ar    1  UNL1       -0.0204
     32 C          18.9900   24.6476   -0.3031 C.ar    1  UNL1       -0.0042
     33 C          18.4634   23.4350   -1.0119 C.ar    1  UNL1       -0.0003
     34 C          17.5203   22.5051   -0.3076 C.ar    1  UNL1       -0.0000
     35 C          17.1039   22.7878    1.1054 C.ar    1  UNL1       -0.0003
     36 C          17.6305   24.0004    1.8142 C.ar    1  UNL1       -0.0042
@<TRIPOS>UNITY_ATOM_ATTR
1 1
charge 1
@<TRIPOS>BOND
     1     4     5   ar
     2     5     6    1
     3     6     7    1
     4     7     8    1
     5     8     9    1
     6     9     1    1
     7     1    20    1
     8    20    21    1
     9    21    22    1
    10    21    24    1
    11    24    25    1
    12    25    26   am
    13    26    27    2
    14    26    28    1
    15    24    30    1
    16    30    31    1
    17    31    32   ar
    18    32    33   ar
    19    33    34   ar
    20    34    35   ar
    21    35    36   ar
    22     9    10    1
    23    10    11   ar
    24    11    12   ar
    25    12    15    1
    26    15    16    1
    27    16    17    1
    28    16    18    1
    29    16    19    1
    30     7    13    1
    31     7    14    1
    32    12     4   ar
    33    10     5   ar
    34    36    31   ar
    35     1     2    1
    36     1     3    1
    37    22    23    1
    38    25    29    1
@<TRIPOS>MOLECULE
*****
 36 38 0 0 0
SMALL
GASTEIGER

@<TRIPOS>ATOM
      1 N          19.0020   19.2017   -4.3302 N.4     1  UNL1        0.2554
      2 H          19.0457   20.0110   -4.9494 H       1  UNL1        0.2037
      3 H          18.4332   19.2277   -5.1765 H       1  UNL1        0.2037
      4 S          19.7791   21.0208    0.2818 S.2     1  UNL1       -0.0551
      5 C          20.3436   20.0243   -0.6869 C.ar    1  UNL1        0.1694
      6 O          21.5113   19.0871   -0.5965 O.3     1  UNL1       -0.4767
      7 C          21.8425   18.1881   -1.7507 C.3     1  UNL1        0.1398
      8 C          21.0061   18.2263   -2.9952 C.3     1  UNL1        0.0998
      9 C          19.8384   19.1635   -3.0856 C.3     1  UNL1        0.0824
     10 C          19.5072   20.0625   -1.9315 C.ar    1  UNL1        0.0671
     11 C          18.4257   21.0826   -1.7320 C.ar    1  UNL1        0.0070
     12 C          18.5938   21.6748   -0.3641 C.ar    1  UNL1        0.0100
     13 C          22.5495   17.1506   -2.5716 C.3     1  UNL1        0.0438
     14 C          22.9245   17.7896   -0.7912 C.3     1  UNL1        0.0438
     15 C          17.7284   22.7350    0.2500 C.3     1  UNL1        0.0330
     16 C          18.3243   24.0535    0.6455 C.3     1  UNL1        0.0046
     17 C          17.9778   23.7802    2.0791 C.3     1  UNL1        0.0004
     18 C          18.6709   24.3269   -0.7881 C.3     1  UNL1        0.0004
     19 C          18.9203   25.3720    1.0410 C.3     1  UNL1        0.0004
     20 C          18.1013   18.0496   -4.6641 C.3     1  UNL1        0.1337
     21 C          16.7824   17.9017   -3.9651 C.3     1  UNL1        0.1839
     22 O          16.2446   19.0271   -3.1320 O.3     1  UNL1       -0.3775
     23 H          15.3917   18.9314   -2.6799 H       1  UNL1        0.2106
     24 C          16.0012   16.6282   -4.0992 C.3     1  UNL1        0.1086
     25 N          15.0132   16.4685   -5.2166 N.am    1  UNL1       -0.3030
     26 C          15.4408   15.8458   -6.5126 C.2     1  UNL1        0.2230
     27 O          16.8563   15.3829   -6.6911 O.2     1  UNL1       -0.2751
     28 C          14.4528   15.6861   -7.6299 C.3     1  UNL1        0.0946
     29 H          14.0841   16.7723   -5.0994 H       1  UNL1        0.1495
     30 C          16.2081   15.5144   -3.1160 C.3     1  UNL1        0.0486
     31 C          17.5966   15.1329   -2.6960 C.ar    1  UNL1       -0.0204
     32 C          18.1602   15.6544   -1.4074 C.ar    1  UNL1       -0.0042
     33 C          19.5487   15.2730   -0.9873 C.ar    1  UNL1       -0.0003
     34 C          20.3737   14.3701   -1.8558 C.ar    1  UNL1       -0.0000
     35 C          19.8101   13.8487   -3.1444 C.ar    1  UNL1       -0.0003
     36 C          18.4215   14.2301   -3.5645 C.ar    1  UNL1       -0.0042
@<TRIPOS>UNITY_ATOM_ATTR
1 1
charge 1
@<TRIPOS>BOND
     1     4     5   ar
     2     5     6    1
     3     6     7    1
     4     7     8    1
     5     8     9    1
     6     9     1    1
     7     1    20    1
     8    20    21    1
     9    21    22    1
    10    21    24    1
    11    24    25    1
    12    25    26   am
    13    26    27    2
    14    26    28    1
    15    24    30    1
    16    30    31    1
    17    31    32   ar
    18    32    33   ar
    19    33    34   ar
    20    34    35   ar
    21    35    36   ar
    22     9    10    1
    23    10    11   ar
    24    11    12   ar
    25    12    15    1
    26    15    16    1
    27    16    17    1
    28    16    18    1
    29    16    19    1
    30     7    13    1
    31     7    14    1
    32    12     4   ar
    33    10     5   ar
    34    36    31   ar
    35     1     2    1
    36     1     3    1
    37    22    23    1
    38    25    29    1
