@<TRIPOS>MOLECULE
*****
 30 34 0 0 0
SMALL
GASTEIGER

@<TRIPOS>ATOM
      1 C          22.6240   32.5737   -0.9252 C.ar    1  UNL1        0.0008
      2 C          23.1871   31.1983   -1.1283 C.ar    1  UNL1        0.0010
      3 C          22.8962   30.1143   -0.1332 C.ar    1  UNL1        0.0399
      4 C          22.0423   30.4055    1.0650 C.ar    1  UNL1        0.1434
      5 O          21.7514   29.3215    2.0601 O.3     1  UNL1       -0.4540
      6 C          22.3145   27.9461    1.8569 C.ar    1  UNL1        0.1436
      7 C          23.1685   27.6549    0.6586 C.ar    1  UNL1        0.0429
      8 C          23.7316   26.2795    0.4555 C.ar    1  UNL1        0.0379
      9 C          23.4408   25.1955    1.4506 C.ar    1  UNL1        0.1387
     10 C          22.5868   25.4867    2.6489 C.ar    1  UNL1        0.0400
     11 C          22.0237   26.8621    2.8520 C.ar    1  UNL1        0.0403
     12 C          23.4594   28.7389   -0.3365 C.3     1  UNL1        0.1721
     13 N          23.8342   29.7165   -1.4106 N.2     1  UNL1       -0.2161
     14 C          24.6949   29.0007   -2.4090 C.2     1  UNL1        0.2773
     15 O          24.8521   27.5807   -1.9518 O.2     1  UNL1       -0.4474
     16 C          24.0885   27.4189   -0.6709 C.3     1  UNL1        0.2391
     17 N          25.2934   29.5996   -3.6471 N.pl3   1  UNL1       -0.3133
     18 C          21.4791   31.7810    1.2682 C.ar    1  UNL1        0.0372
     19 C          21.7700   32.8650    0.2731 C.ar    1  UNL1        0.0031
     20 H          25.1322   30.5464   -3.8634 H       1  UNL1        0.1466
     21 H          25.8474   29.0459   -4.2435 H       1  UNL1        0.1466
     22 CL         23.8691   35.1480   -0.0179 Cl      1  UNL1       -0.0822
     23 C          23.5374   34.9449   -1.4666 C.ar    1  UNL1        0.0576
     24 C          23.8283   36.0290   -2.4617 C.ar    1  UNL1        0.0114
     25 C          23.4966   35.8259   -3.9104 C.ar    1  UNL1        0.0009
     26 C          22.8740   34.5388   -4.3640 C.ar    1  UNL1        0.0001
     27 C          22.5832   33.4547   -3.3690 C.ar    1  UNL1        0.0008
     28 C          22.9149   33.6577   -1.9203 C.ar    1  UNL1        0.0106
     29 O          24.0039   23.8201    1.2474 O.3     1  UNL1       -0.4714
     30 C          25.3735   23.6498    0.6599 C.3     1  UNL1        0.2525
@<TRIPOS>BOND
     1    22    23    1
     2    23    24   ar
     3    24    25   ar
     4    25    26   ar
     5    26    27   ar
     6    27    28   ar
     7    28     1    1
     8     1     2   ar
     9     2     3   ar
    10     3     4   ar
    11     4     5    1
    12     5     6    1
    13     6     7   ar
    14     7     8   ar
    15     8     9   ar
    16     9    29    1
    17    29    30    1
    18     9    10   ar
    19    10    11   ar
    20     7    12    1
    21    12    13    1
    22    13    14    2
    23    14    15    1
    24    15    16    1
    25    14    17    1
    26     4    18   ar
    27    18    19   ar
    28    28    23   ar
    29    19     1   ar
    30    12     3    1
    31    11     6   ar
    32    16    12    1
    33    17    20    1
    34    17    21    1
@<TRIPOS>MOLECULE
*****
 30 34 0 0 0
SMALL
GASTEIGER

@<TRIPOS>ATOM
      1 C          18.9689   17.2465   -1.5430 C.ar    1  UNL1        0.0008
      2 C          19.6471   18.1499   -0.5561 C.ar    1  UNL1        0.0010
      3 C          19.3664   19.6233   -0.5719 C.ar    1  UNL1        0.0399
      4 C          18.4075   20.1934   -1.5746 C.ar    1  UNL1        0.1434
      5 O          18.1268   21.6668   -1.5904 O.3     1  UNL1       -0.4540
      6 C          18.8051   22.5701   -0.6035 C.ar    1  UNL1        0.1436
      7 C          19.7640   22.0000    0.3992 C.ar    1  UNL1        0.0429
      8 C          20.4422   22.9033    1.3861 C.ar    1  UNL1        0.0379
      9 C          20.1615   24.3767    1.3703 C.ar    1  UNL1        0.1387
     10 C          19.2026   24.9469    0.3676 C.ar    1  UNL1        0.0400
     11 C          18.5244   24.0435   -0.6193 C.ar    1  UNL1        0.0403
     12 C          20.0447   20.5266    0.4150 C.3     1  UNL1        0.1721
     13 N          20.4226   19.0813    0.5508 N.2     1  UNL1       -0.2161
     14 C          21.4055   18.9632    1.6777 C.2     1  UNL1        0.2773
     15 O          21.6350   20.3354    2.2384 O.2     1  UNL1       -0.4474
     16 C          20.7940   21.3017    1.4580 C.3     1  UNL1        0.2391
     17 N          22.0464   17.6954    2.1594 N.pl3   1  UNL1       -0.3133
     18 C          17.7293   19.2900   -2.5616 C.ar    1  UNL1        0.0372
     19 C          18.0100   17.8166   -2.5458 C.ar    1  UNL1        0.0031
     20 H          21.8308   16.8388    1.7246 H       1  UNL1        0.1466
     21 H          22.6826   17.7200    2.9103 H       1  UNL1        0.1466
     22 CL         21.2079   16.1282   -3.1974 Cl      1  UNL1       -0.0822
     23 C          20.3691   15.2139   -2.3544 C.ar    1  UNL1        0.0576
     24 C          20.6498   13.7405   -2.3386 C.ar    1  UNL1        0.0114
     25 C          19.8110   12.8263   -1.4956 C.ar    1  UNL1        0.0009
     26 C          18.6915   13.3854   -0.6685 C.ar    1  UNL1        0.0001
     27 C          18.4109   14.8588   -0.6842 C.ar    1  UNL1        0.0008
     28 C          19.2496   15.7731   -1.5272 C.ar    1  UNL1        0.0106
     29 O          20.8397   25.2800    2.3572 O.3     1  UNL1       -0.4714
     30 C          22.3201   25.1758    2.5751 C.3     1  UNL1        0.2525
@<TRIPOS>BOND
     1    22    23    1
     2    23    24   ar
     3    24    25   ar
     4    25    26   ar
     5    26    27   ar
     6    27    28   ar
     7    28     1    1
     8     1     2   ar
     9     2     3   ar
    10     3     4   ar
    11     4     5    1
    12     5     6    1
    13     6     7   ar
    14     7     8   ar
    15     8     9   ar
    16     9    29    1
    17    29    30    1
    18     9    10   ar
    19    10    11   ar
    20     7    12    1
    21    12    13    1
    22    13    14    2
    23    14    15    1
    24    15    16    1
    25    14    17    1
    26     4    18   ar
    27    18    19   ar
    28    28    23   ar
    29    19     1   ar
    30    12     3    1
    31    11     6   ar
    32    16    12    1
    33    17    20    1
    34    17    21    1
@<TRIPOS>MOLECULE
*****
 30 34 0 0 0
SMALL
GASTEIGER

@<TRIPOS>ATOM
      1 C          18.6213   20.6523   -0.6468 C.ar    1  UNL1        0.0008
      2 C          19.5094   19.6701    0.0578 C.ar    1  UNL1        0.0010
      3 C          19.6495   18.2730   -0.4697 C.ar    1  UNL1        0.0399
      4 C          18.9014   17.8580   -1.7019 C.ar    1  UNL1        0.1434
      5 O          19.0415   16.4608   -2.2294 O.3     1  UNL1       -0.4540
      6 C          19.9297   15.4786   -1.5248 C.ar    1  UNL1        0.1436
      7 C          20.6778   15.8937   -0.2927 C.ar    1  UNL1        0.0429
      8 C          21.5659   14.9114    0.4119 C.ar    1  UNL1        0.0379
      9 C          21.7060   13.5143   -0.1156 C.ar    1  UNL1        0.1387
     10 C          20.9579   13.0993   -1.3478 C.ar    1  UNL1        0.0400
     11 C          20.0698   14.0815   -2.0523 C.ar    1  UNL1        0.0403
     12 C          20.5377   17.2908    0.2349 C.3     1  UNL1        0.1721
     13 N          20.4971   18.6461    0.8764 N.2     1  UNL1       -0.2161
     14 C          21.3921   18.6163    2.0798 C.2     1  UNL1        0.2773
     15 O          21.9857   17.2425    2.1820 O.2     1  UNL1       -0.4474
     16 C          21.4577   16.4234    1.0418 C.3     1  UNL1        0.2391
     17 N          21.6484   19.7594    3.0165 N.pl3   1  UNL1       -0.3133
     18 C          18.0132   18.8402   -2.4064 C.ar    1  UNL1        0.0372
     19 C          17.8731   20.2374   -1.8789 C.ar    1  UNL1        0.0031
     20 H          21.2095   20.6276    2.8653 H       1  UNL1        0.1466
     21 H          22.2554   19.6415    3.7826 H       1  UNL1        0.1466
     22 CL         17.5561   21.1113    2.1200 Cl      1  UNL1       -0.0822
     23 C          17.9486   22.2790    1.2642 C.ar    1  UNL1        0.0576
     24 C          17.8085   23.6762    1.7917 C.ar    1  UNL1        0.0114
     25 C          18.2010   24.8438    0.9358 C.ar    1  UNL1        0.0009
     26 C          18.7336   24.6144   -0.4476 C.ar    1  UNL1        0.0001
     27 C          18.8737   23.2172   -0.9751 C.ar    1  UNL1        0.0008
     28 C          18.4812   22.0495   -0.1192 C.ar    1  UNL1        0.0106
     29 O          22.5942   12.5321    0.5890 O.3     1  UNL1       -0.4714
     30 C          23.3527   12.9511    1.8134 C.3     1  UNL1        0.2525
@<TRIPOS>BOND
     1    22    23    1
     2    23    24   ar
     3    24    25   ar
     4    25    26   ar
     5    26    27   ar
     6    27    28   ar
     7    28     1    1
     8     1     2   ar
     9     2     3   ar
    10     3     4   ar
    11     4     5    1
    12     5     6    1
    13     6     7   ar
    14     7     8   ar
    15     8     9   ar
    16     9    29    1
    17    29    30    1
    18     9    10   ar
    19    10    11   ar
    20     7    12    1
    21    12    13    1
    22    13    14    2
    23    14    15    1
    24    15    16    1
    25    14    17    1
    26     4    18   ar
    27    18    19   ar
    28    28    23   ar
    29    19     1   ar
    30    12     3    1
    31    11     6   ar
    32    16    12    1
    33    17    20    1
    34    17    21    1
@<TRIPOS>MOLECULE
*****
 30 34 0 0 0
SMALL
GASTEIGER

@<TRIPOS>ATOM
      1 C          19.4429   16.2313   -0.6814 C.ar    1  UNL1        0.0008
      2 C          19.5643   17.4670    0.1601 C.ar    1  UNL1        0.0010
      3 C          19.2714   18.8120   -0.4357 C.ar    1  UNL1        0.0399
      4 C          18.8570   18.9214   -1.8732 C.ar    1  UNL1        0.1434
      5 O          18.5640   20.2665   -2.4691 O.3     1  UNL1       -0.4540
      6 C          18.6855   21.5021   -1.6274 C.ar    1  UNL1        0.1436
      7 C          19.0999   21.3928   -0.1900 C.ar    1  UNL1        0.0429
      8 C          19.2213   22.6285    0.6516 C.ar    1  UNL1        0.0379
      9 C          18.9284   23.9735    0.0557 C.ar    1  UNL1        0.1387
     10 C          18.5140   24.0829   -1.3817 C.ar    1  UNL1        0.0400
     11 C          18.3926   22.8472   -2.2233 C.ar    1  UNL1        0.0403
     12 C          19.3928   20.0477    0.4059 C.3     1  UNL1        0.1721
     13 N          19.7165   18.7780    1.1360 N.2     1  UNL1       -0.2161
     14 C          20.0800   19.1345    2.5469 C.2     1  UNL1        0.2773
     15 O          19.9810   20.6245    2.6888 O.2     1  UNL1       -0.4474
     16 C          19.5563   21.1889    1.3656 C.3     1  UNL1        0.2391
     17 N          20.4735   18.1703    3.6265 N.pl3   1  UNL1       -0.3133
     18 C          18.7356   17.6856   -2.7148 C.ar    1  UNL1        0.0372
     19 C          19.0285   16.3406   -2.1189 C.ar    1  UNL1        0.0031
     20 H          20.5097   17.2052    3.4353 H       1  UNL1        0.1466
     21 H          20.6955   18.5025    4.5263 H       1  UNL1        0.1466
     22 CL         22.2192   15.1026   -0.8182 Cl      1  UNL1       -0.0822
     23 C          21.1240   14.3219   -0.1540 C.ar    1  UNL1        0.0576
     24 C          21.4170   12.9768    0.4419 C.ar    1  UNL1        0.0114
     25 C          20.3217   12.1962    1.1061 C.ar    1  UNL1        0.0009
     26 C          18.9336   12.7606    1.1745 C.ar    1  UNL1        0.0001
     27 C          18.6407   14.1056    0.5786 C.ar    1  UNL1        0.0008
     28 C          19.7359   14.8863   -0.0856 C.ar    1  UNL1        0.0106
     29 O          19.0498   25.2092    0.8974 O.3     1  UNL1       -0.4714
     30 C          19.0463   25.1009    2.3934 C.3     1  UNL1        0.2525
@<TRIPOS>BOND
     1    22    23    1
     2    23    24   ar
     3    24    25   ar
     4    25    26   ar
     5    26    27   ar
     6    27    28   ar
     7    28     1    1
     8     1     2   ar
     9     2     3   ar
    10     3     4   ar
    11     4     5    1
    12     5     6    1
    13     6     7   ar
    14     7     8   ar
    15     8     9   ar
    16     9    29    1
    17    29    30    1
    18     9    10   ar
    19    10    11   ar
    20     7    12    1
    21    12    13    1
    22    13    14    2
    23    14    15    1
    24    15    16    1
    25    14    17    1
    26     4    18   ar
    27    18    19   ar
    28    28    23   ar
    29    19     1   ar
    30    12     3    1
    31    11     6   ar
    32    16    12    1
    33    17    20    1
    34    17    21    1
@<TRIPOS>MOLECULE
*****
 30 34 0 0 0
SMALL
GASTEIGER

@<TRIPOS>ATOM
      1 C          25.9248   28.2290   -0.2743 C.ar    1  UNL1        0.0008
      2 C          24.8435   29.2152    0.0547 C.ar    1  UNL1        0.0010
      3 C          24.8911   30.5999   -0.5200 C.ar    1  UNL1        0.0399
      4 C          26.0200   30.9985   -1.4237 C.ar    1  UNL1        0.1434
      5 O          26.0675   32.3833   -1.9984 O.3     1  UNL1       -0.4540
      6 C          24.9862   33.3694   -1.6693 C.ar    1  UNL1        0.1436
      7 C          23.8573   32.9707   -0.7656 C.ar    1  UNL1        0.0429
      8 C          22.7760   33.9569   -0.4366 C.ar    1  UNL1        0.0379
      9 C          22.8235   35.3416   -1.0112 C.ar    1  UNL1        0.1387
     10 C          23.9524   35.7402   -1.9150 C.ar    1  UNL1        0.0400
     11 C          25.0337   34.7541   -2.2440 C.ar    1  UNL1        0.0403
     12 C          23.8097   31.5860   -0.1909 C.3     1  UNL1        0.1721
     13 N          23.6291   30.2443    0.4550 N.2     1  UNL1       -0.2161
     14 C          22.3710   30.2882    1.2707 C.2     1  UNL1        0.2773
     15 O          21.7741   31.6571    1.1289 O.2     1  UNL1       -0.4474
     16 C          22.6633   32.4591    0.2256 C.3     1  UNL1        0.2391
     17 N          21.8085   29.1612    2.0852 N.pl3   1  UNL1       -0.3133
     18 C          27.1013   30.0123   -1.7527 C.ar    1  UNL1        0.0372
     19 C          27.0537   28.6276   -1.1781 C.ar    1  UNL1        0.0031
     20 H          22.2755   28.2951    2.1157 H       1  UNL1        0.1466
     21 H          20.9723   29.2876    2.5892 H       1  UNL1        0.1466
     22 CL         26.9305   27.7237    2.5066 Cl      1  UNL1       -0.0822
     23 C          26.3801   26.5916    1.6909 C.ar    1  UNL1        0.0576
     24 C          26.3326   25.2069    2.2655 C.ar    1  UNL1        0.0114
     25 C          25.7822   24.0749    1.4497 C.ar    1  UNL1        0.0009
     26 C          25.2794   24.3275    0.0592 C.ar    1  UNL1        0.0001
     27 C          25.3269   25.7122   -0.5154 C.ar    1  UNL1        0.0008
     28 C          25.8773   26.8443    0.3003 C.ar    1  UNL1        0.0106
     29 O          21.7422   36.3277   -0.6822 O.3     1  UNL1       -0.4714
     30 C          22.0689   37.7868   -0.5624 C.3     1  UNL1        0.2525
@<TRIPOS>BOND
     1    22    23    1
     2    23    24   ar
     3    24    25   ar
     4    25    26   ar
     5    26    27   ar
     6    27    28   ar
     7    28     1    1
     8     1     2   ar
     9     2     3   ar
    10     3     4   ar
    11     4     5    1
    12     5     6    1
    13     6     7   ar
    14     7     8   ar
    15     8     9   ar
    16     9    29    1
    17    29    30    1
    18     9    10   ar
    19    10    11   ar
    20     7    12    1
    21    12    13    1
    22    13    14    2
    23    14    15    1
    24    15    16    1
    25    14    17    1
    26     4    18   ar
    27    18    19   ar
    28    28    23   ar
    29    19     1   ar
    30    12     3    1
    31    11     6   ar
    32    16    12    1
    33    17    20    1
    34    17    21    1
@<TRIPOS>MOLECULE
*****
 30 34 0 0 0
SMALL
GASTEIGER

@<TRIPOS>ATOM
      1 C          24.8422   27.2340    0.3687 C.ar    1  UNL1        0.0008
      2 C          24.8664   28.6303   -0.1786 C.ar    1  UNL1        0.0010
      3 C          23.7748   29.5950    0.1788 C.ar    1  UNL1        0.0399
      4 C          22.6589   29.1634    1.0835 C.ar    1  UNL1        0.1434
      5 O          21.5673   30.1281    1.4409 O.3     1  UNL1       -0.4540
      6 C          21.5916   31.5244    0.8936 C.ar    1  UNL1        0.1436
      7 C          22.7075   31.9560   -0.0112 C.ar    1  UNL1        0.0429
      8 C          22.7316   33.3524   -0.5584 C.ar    1  UNL1        0.0379
      9 C          21.6400   34.3171   -0.2011 C.ar    1  UNL1        0.1387
     10 C          20.5242   33.8854    0.7037 C.ar    1  UNL1        0.0400
     11 C          20.5000   32.4891    1.2510 C.ar    1  UNL1        0.0403
     12 C          23.7991   30.9913   -0.3685 C.3     1  UNL1        0.1721
     13 N          24.9535   30.1422   -0.8116 N.2     1  UNL1       -0.2161
     14 C          25.8243   30.9740   -1.7059 C.2     1  UNL1        0.2773
     15 O          25.2080   32.3372   -1.8156 O.2     1  UNL1       -0.4474
     16 C          23.9564   32.3479   -0.9890 C.3     1  UNL1        0.2391
     17 N          27.0892   30.5221   -2.3734 N.pl3   1  UNL1       -0.3133
     18 C          22.6348   27.7669    1.6308 C.ar    1  UNL1        0.0372
     19 C          23.7264   26.8022    1.2735 C.ar    1  UNL1        0.0031
     20 H          27.4150   29.6027   -2.2398 H       1  UNL1        0.1466
     21 H          27.5938   31.1448   -2.9452 H       1  UNL1        0.1466
     22 CL         27.4262   27.2609    1.8928 Cl      1  UNL1       -0.0822
     23 C          27.2259   26.2827    0.7734 C.ar    1  UNL1        0.0576
     24 C          28.3175   25.3180    0.4160 C.ar    1  UNL1        0.0114
     25 C          28.1170   24.3399   -0.7035 C.ar    1  UNL1        0.0009
     26 C          26.8251   24.3264   -1.4655 C.ar    1  UNL1        0.0001
     27 C          25.7335   25.2911   -1.1081 C.ar    1  UNL1        0.0008
     28 C          25.9338   26.2693    0.0113 C.ar    1  UNL1        0.0106
     29 O          21.6643   35.7134   -0.7484 O.3     1  UNL1       -0.4714
     30 C          22.7567   36.6585   -0.3442 C.3     1  UNL1        0.2525
@<TRIPOS>BOND
     1    22    23    1
     2    23    24   ar
     3    24    25   ar
     4    25    26   ar
     5    26    27   ar
     6    27    28   ar
     7    28     1    1
     8     1     2   ar
     9     2     3   ar
    10     3     4   ar
    11     4     5    1
    12     5     6    1
    13     6     7   ar
    14     7     8   ar
    15     8     9   ar
    16     9    29    1
    17    29    30    1
    18     9    10   ar
    19    10    11   ar
    20     7    12    1
    21    12    13    1
    22    13    14    2
    23    14    15    1
    24    15    16    1
    25    14    17    1
    26     4    18   ar
    27    18    19   ar
    28    28    23   ar
    29    19     1   ar
    30    12     3    1
    31    11     6   ar
    32    16    12    1
    33    17    20    1
    34    17    21    1
@<TRIPOS>MOLECULE
*****
 30 34 0 0 0
SMALL
GASTEIGER

@<TRIPOS>ATOM
      1 C          21.1537   17.6288   -2.1749 C.ar    1  UNL1        0.0008
      2 C          21.4330   18.7943   -1.2730 C.ar    1  UNL1        0.0010
      3 C          20.3087   19.6769   -0.8181 C.ar    1  UNL1        0.0399
      4 C          18.9051   19.3940   -1.2651 C.ar    1  UNL1        0.1434
      5 O          17.7808   20.2767   -0.8102 O.3     1  UNL1       -0.4540
      6 C          18.0602   21.4422    0.0917 C.ar    1  UNL1        0.1436
      7 C          19.4638   21.7250    0.5388 C.ar    1  UNL1        0.0429
      8 C          19.7430   22.8905    1.4408 C.ar    1  UNL1        0.0379
      9 C          18.6187   23.7731    1.8957 C.ar    1  UNL1        0.1387
     10 C          17.2151   23.4903    1.4486 C.ar    1  UNL1        0.0400
     11 C          16.9359   22.3248    0.5466 C.ar    1  UNL1        0.0403
     12 C          20.5880   20.8424    0.0839 C.3     1  UNL1        0.1721
     13 N          21.8077   20.0520   -0.2871 N.2     1  UNL1       -0.2161
     14 C          22.9918   20.6865    0.3802 C.2     1  UNL1        0.2773
     15 O          22.5040   21.8690    1.1636 O.2     1  UNL1       -0.4474
     16 C          21.0184   21.9653    0.9805 C.3     1  UNL1        0.2391
     17 N          24.4141   20.2203    0.2815 N.pl3   1  UNL1       -0.3133
     18 C          18.6259   18.2285   -2.1672 C.ar    1  UNL1        0.0372
     19 C          19.7501   17.3458   -2.6221 C.ar    1  UNL1        0.0031
     20 H          24.6363   19.4290   -0.2606 H       1  UNL1        0.1466
     21 H          25.1255   20.7056    0.7587 H       1  UNL1        0.1466
     22 CL         22.6124   18.2502   -4.7218 Cl      1  UNL1       -0.0822
     23 C          23.0074   17.0568   -3.9033 C.ar    1  UNL1        0.0576
     24 C          24.1316   16.1742   -4.3582 C.ar    1  UNL1        0.0114
     25 C          24.5266   14.9809   -3.5396 C.ar    1  UNL1        0.0009
     26 C          23.7973   14.6702   -2.2662 C.ar    1  UNL1        0.0001
     27 C          22.6730   15.5528   -1.8113 C.ar    1  UNL1        0.0008
     28 C          22.2780   16.7461   -2.6298 C.ar    1  UNL1        0.0106
     29 O          18.8981   24.9386    2.7976 O.3     1  UNL1       -0.4714
     30 C          20.2580   25.5715    2.8059 C.3     1  UNL1        0.2525
@<TRIPOS>BOND
     1    22    23    1
     2    23    24   ar
     3    24    25   ar
     4    25    26   ar
     5    26    27   ar
     6    27    28   ar
     7    28     1    1
     8     1     2   ar
     9     2     3   ar
    10     3     4   ar
    11     4     5    1
    12     5     6    1
    13     6     7   ar
    14     7     8   ar
    15     8     9   ar
    16     9    29    1
    17    29    30    1
    18     9    10   ar
    19    10    11   ar
    20     7    12    1
    21    12    13    1
    22    13    14    2
    23    14    15    1
    24    15    16    1
    25    14    17    1
    26     4    18   ar
    27    18    19   ar
    28    28    23   ar
    29    19     1   ar
    30    12     3    1
    31    11     6   ar
    32    16    12    1
    33    17    20    1
    34    17    21    1
@<TRIPOS>MOLECULE
*****
 30 34 0 0 0
SMALL
GASTEIGER

@<TRIPOS>ATOM
      1 C          26.3035   28.5522   -0.6799 C.ar    1  UNL1        0.0008
      2 C          24.9933   28.7125    0.0323 C.ar    1  UNL1        0.0010
      3 C          24.1713   29.9494   -0.1787 C.ar    1  UNL1        0.0399
      4 C          24.6597   31.0260   -1.1020 C.ar    1  UNL1        0.1434
      5 O          23.8377   32.2629   -1.3130 O.3     1  UNL1       -0.4540
      6 C          22.5274   32.4231   -0.6007 C.ar    1  UNL1        0.1436
      7 C          22.0391   31.3466    0.3226 C.ar    1  UNL1        0.0429
      8 C          20.7288   31.5069    1.0349 C.ar    1  UNL1        0.0379
      9 C          19.9068   32.7438    0.8239 C.ar    1  UNL1        0.1387
     10 C          20.3952   33.8204   -0.0994 C.ar    1  UNL1        0.0400
     11 C          21.7055   33.6600   -0.8117 C.ar    1  UNL1        0.0403
     12 C          22.8610   30.1097    0.5336 C.3     1  UNL1        0.1721
     13 N          23.5699   28.8243    0.8422 N.2     1  UNL1       -0.2161
     14 C          22.7250   28.0497    1.8097 C.2     1  UNL1        0.2773
     15 O          21.4939   28.8564    2.0991 O.2     1  UNL1       -0.4474
     16 C          21.5780   30.1295    1.3105 C.3     1  UNL1        0.2391
     17 N          23.0535   26.7046    2.3866 N.pl3   1  UNL1       -0.3133
     18 C          25.9700   30.8656   -1.8143 C.ar    1  UNL1        0.0372
     19 C          26.7920   29.6287   -1.6033 C.ar    1  UNL1        0.0031
     20 H          23.8905   26.2519    2.1343 H       1  UNL1        0.1466
     21 H          22.4320   26.2745    3.0174 H       1  UNL1        0.1466
     22 CL         26.7195   27.4823    2.0919 Cl      1  UNL1       -0.0822
     23 C          27.3335   26.7803    0.9170 C.ar    1  UNL1        0.0576
     24 C          28.1554   25.5435    1.1280 C.ar    1  UNL1        0.0114
     25 C          28.7694   24.8416   -0.0469 C.ar    1  UNL1        0.0009
     26 C          28.5615   25.3765   -1.4328 C.ar    1  UNL1        0.0001
     27 C          27.7395   26.6133   -1.6438 C.ar    1  UNL1        0.0008
     28 C          27.1255   27.3153   -0.4689 C.ar    1  UNL1        0.0106
     29 O          18.5965   32.9041    1.5362 O.3     1  UNL1       -0.4714
     30 C          18.2714   34.1953    2.2269 C.3     1  UNL1        0.2525
@<TRIPOS>BOND
     1    22    23    1
     2    23    24   ar
     3    24    25   ar
     4    25    26   ar
     5    26    27   ar
     6    27    28   ar
     7    28     1    1
     8     1     2   ar
     9     2     3   ar
    10     3     4   ar
    11     4     5    1
    12     5     6    1
    13     6     7   ar
    14     7     8   ar
    15     8     9   ar
    16     9    29    1
    17    29    30    1
    18     9    10   ar
    19    10    11   ar
    20     7    12    1
    21    12    13    1
    22    13    14    2
    23    14    15    1
    24    15    16    1
    25    14    17    1
    26     4    18   ar
    27    18    19   ar
    28    28    23   ar
    29    19     1   ar
    30    12     3    1
    31    11     6   ar
    32    16    12    1
    33    17    20    1
    34    17    21    1
@<TRIPOS>MOLECULE
*****
 30 34 0 0 0
SMALL
GASTEIGER

@<TRIPOS>ATOM
      1 C          25.5212   29.4425   -0.9722 C.ar    1  UNL1        0.0008
      2 C          24.7039   30.6467   -0.6094 C.ar    1  UNL1        0.0010
      3 C          24.8258   31.9063   -1.4147 C.ar    1  UNL1        0.0399
      4 C          25.7652   31.9617   -2.5829 C.ar    1  UNL1        0.1434
      5 O          25.8871   33.2213   -3.3882 O.3     1  UNL1       -0.4540
      6 C          25.0697   34.4255   -3.0254 C.ar    1  UNL1        0.1436
      7 C          24.1304   34.3702   -1.8572 C.ar    1  UNL1        0.0429
      8 C          23.3130   35.5744   -1.4944 C.ar    1  UNL1        0.0379
      9 C          23.4350   36.8340   -2.2997 C.ar    1  UNL1        0.1387
     10 C          24.3743   36.8894   -3.4679 C.ar    1  UNL1        0.0400
     11 C          25.1917   35.6851   -3.8307 C.ar    1  UNL1        0.0403
     12 C          24.0084   33.1106   -1.0519 C.3     1  UNL1        0.1721
     13 N          23.7811   31.9272   -0.1586 N.2     1  UNL1       -0.2161
     14 C          22.7637   32.3142    0.8734 C.2     1  UNL1        0.2773
     15 O          22.3622   33.7367    0.6179 O.2     1  UNL1       -0.4474
     16 C          23.1315   34.2289   -0.5720 C.3     1  UNL1        0.2391
     17 N          22.2397   31.4333    1.9686 N.pl3   1  UNL1       -0.3133
     18 C          26.5825   30.7574   -2.9457 C.ar    1  UNL1        0.0372
     19 C          26.4606   29.4978   -2.1404 C.ar    1  UNL1        0.0031
     20 H          22.5663   30.5086    2.0553 H       1  UNL1        0.1466
     21 H          21.5693   31.7799    2.6008 H       1  UNL1        0.1466
     22 CL         27.3281   28.9841    1.3784 Cl      1  UNL1       -0.0822
     23 C          26.3027   27.9537    1.0084 C.ar    1  UNL1        0.0576
     24 C          26.1808   26.6941    1.8137 C.ar    1  UNL1        0.0114
     25 C          25.1554   25.6637    1.4437 C.ar    1  UNL1        0.0009
     26 C          24.2519   25.8929    0.2684 C.ar    1  UNL1        0.0001
     27 C          24.3739   27.1525   -0.5369 C.ar    1  UNL1        0.0008
     28 C          25.3993   28.1829   -0.1669 C.ar    1  UNL1        0.0106
     29 O          22.6176   38.0382   -1.9369 O.3     1  UNL1       -0.4714
     30 C          22.0354   38.1624   -0.5601 C.3     1  UNL1        0.2525
@<TRIPOS>BOND
     1    22    23    1
     2    23    24   ar
     3    24    25   ar
     4    25    26   ar
     5    26    27   ar
     6    27    28   ar
     7    28     1    1
     8     1     2   ar
     9     2     3   ar
    10     3     4   ar
    11     4     5    1
    12     5     6    1
    13     6     7   ar
    14     7     8   ar
    15     8     9   ar
    16     9    29    1
    17    29    30    1
    18     9    10   ar
    19    10    11   ar
    20     7    12    1
    21    12    13    1
    22    13    14    2
    23    14    15    1
    24    15    16    1
    25    14    17    1
    26     4    18   ar
    27    18    19   ar
    28    28    23   ar
    29    19     1   ar
    30    12     3    1
    31    11     6   ar
    32    16    12    1
    33    17    20    1
    34    17    21    1
